<routes>
    <vType id="car" length="5" width="2" accel="2.6" decel="4.5" />
    <vType id="motorcycle" length="2" width="0.8" accel="3.5" decel="4.0" />
    <vType id="truck" length="12" width="2.5" accel="1.0" decel="3.0" />

    
    <route id="-E11_to_-E18" edges="-E11 -E18" />
    <route id="-E11_to_E17" edges="-E11 E17" />
    <route id="-E11_to_E7" edges="-E11 E7" />
    <route id="-E17_to_E7" edges="-E17 E7" />
    <route id="-E17_to_E11" edges="-E17 E11" />
    <route id="-E17_to_-E18" edges="-E17 -E18" />
    <route id="E18_to_E17" edges="E18 E17" />
    <route id="E18_to_E7" edges="E18 E7" />
    <route id="E18_to_E11" edges="E18 E11" />
    <route id="E38_to_E11" edges="E38 E11" />
    <route id="E38_to_-E18" edges="E38 -E18" />
    <route id="E38_to_E17" edges="E38 E17" />
    <vehicle id="E18_to_E11_0" type="car" route="E18_to_E11" depart="8.0" departLane="random" />
    <vehicle id="-E17_to_E11_1" type="motorcycle" route="-E17_to_E11" depart="8.0" departLane="random" />
    <vehicle id="-E11_to_E7_2" type="truck" route="-E11_to_E7" depart="66.0" departLane="random" />
    <vehicle id="E18_to_E7_3" type="car" route="E18_to_E7" depart="100.0" departLane="random" />
    <vehicle id="-E11_to_E17_4" type="motorcycle" route="-E11_to_E17" depart="119.0" departLane="random" />
    <vehicle id="E38_to_-E18_5" type="truck" route="E38_to_-E18" depart="122.0" departLane="random" />
    <vehicle id="-E11_to_E7_6" type="car" route="-E11_to_E7" depart="122.0" departLane="random" />
    <vehicle id="-E17_to_E7_7" type="motorcycle" route="-E17_to_E7" depart="146.0" departLane="random" />
    <vehicle id="E38_to_-E18_8" type="truck" route="E38_to_-E18" depart="149.0" departLane="random" />
    <vehicle id="-E11_to_E17_9" type="car" route="-E11_to_E17" depart="149.0" departLane="random" />
    <vehicle id="-E17_to_E11_10" type="motorcycle" route="-E17_to_E11" depart="169.0" departLane="random" />
    <vehicle id="-E11_to_E7_11" type="truck" route="-E11_to_E7" depart="213.0" departLane="random" />
    <vehicle id="E38_to_-E18_12" type="car" route="E38_to_-E18" depart="214.0" departLane="random" />
    <vehicle id="E18_to_E7_13" type="motorcycle" route="E18_to_E7" depart="219.0" departLane="random" />
    <vehicle id="E18_to_E7_14" type="truck" route="E18_to_E7" depart="222.0" departLane="random" />
    <vehicle id="E18_to_E11_15" type="car" route="E18_to_E11" depart="225.0" departLane="random" />
    <vehicle id="E38_to_-E18_16" type="motorcycle" route="E38_to_-E18" depart="227.0" departLane="random" />
    <vehicle id="-E11_to_E17_17" type="truck" route="-E11_to_E17" depart="279.0" departLane="random" />
    <vehicle id="-E17_to_-E18_18" type="car" route="-E17_to_-E18" depart="305.0" departLane="random" />
    <vehicle id="E18_to_E7_19" type="motorcycle" route="E18_to_E7" depart="305.0" departLane="random" />
    <vehicle id="E18_to_E17_20" type="truck" route="E18_to_E17" depart="322.0" departLane="random" />
    <vehicle id="E38_to_-E18_21" type="car" route="E38_to_-E18" depart="326.0" departLane="random" />
    <vehicle id="E18_to_E17_22" type="motorcycle" route="E18_to_E17" depart="326.0" departLane="random" />
    <vehicle id="E18_to_E11_23" type="truck" route="E18_to_E11" depart="342.0" departLane="random" />
    <vehicle id="E18_to_E7_24" type="car" route="E18_to_E7" depart="347.0" departLane="random" />
    <vehicle id="-E11_to_E17_25" type="motorcycle" route="-E11_to_E17" depart="353.0" departLane="random" />
    <vehicle id="E38_to_E11_26" type="truck" route="E38_to_E11" depart="356.0" departLane="random" />
    <vehicle id="E38_to_-E18_27" type="car" route="E38_to_-E18" depart="361.0" departLane="random" />
    <vehicle id="-E17_to_E11_28" type="motorcycle" route="-E17_to_E11" depart="363.0" departLane="random" />
    <vehicle id="E18_to_E7_29" type="truck" route="E18_to_E7" depart="364.0" departLane="random" />
    <vehicle id="-E11_to_E17_30" type="car" route="-E11_to_E17" depart="372.0" departLane="random" />
    <vehicle id="-E11_to_E17_31" type="motorcycle" route="-E11_to_E17" depart="372.0" departLane="random" />
    <vehicle id="E38_to_-E18_32" type="truck" route="E38_to_-E18" depart="373.0" departLane="random" />
    <vehicle id="E18_to_E7_33" type="car" route="E18_to_E7" depart="379.0" departLane="random" />
    <vehicle id="-E11_to_E17_34" type="motorcycle" route="-E11_to_E17" depart="380.0" departLane="random" />
    <vehicle id="E38_to_E17_35" type="truck" route="E38_to_E17" depart="390.0" departLane="random" />
    <vehicle id="-E17_to_E11_36" type="car" route="-E17_to_E11" depart="394.0" departLane="random" />
    <vehicle id="E38_to_-E18_37" type="motorcycle" route="E38_to_-E18" depart="400.0" departLane="random" />
    <vehicle id="E38_to_-E18_38" type="truck" route="E38_to_-E18" depart="403.0" departLane="random" />
    <vehicle id="E38_to_-E18_39" type="car" route="E38_to_-E18" depart="404.0" departLane="random" />
    <vehicle id="E18_to_E7_40" type="motorcycle" route="E18_to_E7" depart="409.0" departLane="random" />
    <vehicle id="E18_to_E17_41" type="truck" route="E18_to_E17" depart="412.0" departLane="random" />
    <vehicle id="-E11_to_E17_42" type="car" route="-E11_to_E17" depart="414.0" departLane="random" />
    <vehicle id="E38_to_-E18_43" type="motorcycle" route="E38_to_-E18" depart="427.0" departLane="random" />
    <vehicle id="-E17_to_E11_44" type="truck" route="-E17_to_E11" depart="442.0" departLane="random" />
    <vehicle id="E18_to_E7_45" type="car" route="E18_to_E7" depart="443.0" departLane="random" />
    <vehicle id="E38_to_E11_46" type="motorcycle" route="E38_to_E11" depart="459.0" departLane="random" />
    <vehicle id="E38_to_E17_47" type="truck" route="E38_to_E17" depart="461.0" departLane="random" />
    <vehicle id="-E11_to_E7_48" type="car" route="-E11_to_E7" depart="463.0" departLane="random" />
    <vehicle id="-E11_to_E17_49" type="motorcycle" route="-E11_to_E17" depart="469.0" departLane="random" />
    <vehicle id="-E17_to_E11_50" type="truck" route="-E17_to_E11" depart="470.0" departLane="random" />
    <vehicle id="-E11_to_E17_51" type="car" route="-E11_to_E17" depart="472.0" departLane="random" />
    <vehicle id="E18_to_E7_52" type="motorcycle" route="E18_to_E7" depart="480.0" departLane="random" />
    <vehicle id="E18_to_E17_53" type="truck" route="E18_to_E17" depart="502.0" departLane="random" />
    <vehicle id="-E17_to_E11_54" type="car" route="-E17_to_E11" depart="507.0" departLane="random" />
    <vehicle id="-E17_to_-E18_55" type="motorcycle" route="-E17_to_-E18" depart="508.0" departLane="random" />
    <vehicle id="E38_to_-E18_56" type="truck" route="E38_to_-E18" depart="509.0" departLane="random" />
    <vehicle id="-E11_to_-E18_57" type="car" route="-E11_to_-E18" depart="509.0" departLane="random" />
    <vehicle id="-E11_to_E17_58" type="motorcycle" route="-E11_to_E17" depart="510.0" departLane="random" />
    <vehicle id="-E17_to_E11_59" type="truck" route="-E17_to_E11" depart="512.0" departLane="random" />
    <vehicle id="-E17_to_E7_60" type="car" route="-E17_to_E7" depart="515.0" departLane="random" />
    <vehicle id="-E11_to_-E18_61" type="motorcycle" route="-E11_to_-E18" depart="517.0" departLane="random" />
    <vehicle id="-E11_to_E17_62" type="truck" route="-E11_to_E17" depart="518.0" departLane="random" />
    <vehicle id="E38_to_-E18_63" type="car" route="E38_to_-E18" depart="531.0" departLane="random" />
    <vehicle id="-E11_to_E7_64" type="motorcycle" route="-E11_to_E7" depart="533.0" departLane="random" />
    <vehicle id="-E17_to_-E18_65" type="truck" route="-E17_to_-E18" depart="541.0" departLane="random" />
    <vehicle id="-E11_to_E17_66" type="car" route="-E11_to_E17" depart="548.0" departLane="random" />
    <vehicle id="-E11_to_E7_67" type="motorcycle" route="-E11_to_E7" depart="551.0" departLane="random" />
    <vehicle id="-E17_to_E7_68" type="truck" route="-E17_to_E7" depart="561.0" departLane="random" />
    <vehicle id="E18_to_E7_69" type="car" route="E18_to_E7" depart="564.0" departLane="random" />
    <vehicle id="E18_to_E11_70" type="motorcycle" route="E18_to_E11" depart="569.0" departLane="random" />
    <vehicle id="E38_to_E11_71" type="truck" route="E38_to_E11" depart="571.0" departLane="random" />
    <vehicle id="E18_to_E7_72" type="car" route="E18_to_E7" depart="575.0" departLane="random" />
    <vehicle id="-E17_to_E11_73" type="motorcycle" route="-E17_to_E11" depart="575.0" departLane="random" />
    <vehicle id="E18_to_E11_74" type="truck" route="E18_to_E11" depart="581.0" departLane="random" />
    <vehicle id="E18_to_E7_75" type="car" route="E18_to_E7" depart="582.0" departLane="random" />
    <vehicle id="-E11_to_-E18_76" type="motorcycle" route="-E11_to_-E18" depart="585.0" departLane="random" />
    <vehicle id="-E11_to_E17_77" type="truck" route="-E11_to_E17" depart="588.0" departLane="random" />
    <vehicle id="E38_to_-E18_78" type="car" route="E38_to_-E18" depart="588.0" departLane="random" />
    <vehicle id="E18_to_E17_79" type="motorcycle" route="E18_to_E17" depart="589.0" departLane="random" />
    <vehicle id="E18_to_E7_80" type="truck" route="E18_to_E7" depart="595.0" departLane="random" />
    <vehicle id="E38_to_-E18_81" type="car" route="E38_to_-E18" depart="596.0" departLane="random" />
    <vehicle id="E38_to_-E18_82" type="motorcycle" route="E38_to_-E18" depart="597.0" departLane="random" />
    <vehicle id="-E11_to_E17_83" type="truck" route="-E11_to_E17" depart="601.0" departLane="random" />
    <vehicle id="E38_to_-E18_84" type="car" route="E38_to_-E18" depart="602.0" departLane="random" />
    <vehicle id="-E11_to_E17_85" type="motorcycle" route="-E11_to_E17" depart="602.0" departLane="random" />
    <vehicle id="E18_to_E7_86" type="truck" route="E18_to_E7" depart="602.0" departLane="random" />
    <vehicle id="-E17_to_E11_87" type="car" route="-E17_to_E11" depart="604.0" departLane="random" />
    <vehicle id="E18_to_E7_88" type="motorcycle" route="E18_to_E7" depart="606.0" departLane="random" />
    <vehicle id="E18_to_E7_89" type="truck" route="E18_to_E7" depart="611.0" departLane="random" />
    <vehicle id="E18_to_E7_90" type="car" route="E18_to_E7" depart="614.0" departLane="random" />
    <vehicle id="-E17_to_E11_91" type="motorcycle" route="-E17_to_E11" depart="615.0" departLane="random" />
    <vehicle id="E18_to_E7_92" type="truck" route="E18_to_E7" depart="619.0" departLane="random" />
    <vehicle id="-E11_to_E17_93" type="car" route="-E11_to_E17" depart="622.0" departLane="random" />
    <vehicle id="-E11_to_E17_94" type="motorcycle" route="-E11_to_E17" depart="622.0" departLane="random" />
    <vehicle id="-E17_to_E11_95" type="truck" route="-E17_to_E11" depart="626.0" departLane="random" />
    <vehicle id="E38_to_-E18_96" type="car" route="E38_to_-E18" depart="627.0" departLane="random" />
    <vehicle id="-E17_to_-E18_97" type="motorcycle" route="-E17_to_-E18" depart="631.0" departLane="random" />
    <vehicle id="E18_to_E17_98" type="truck" route="E18_to_E17" depart="640.0" departLane="random" />
    <vehicle id="E38_to_-E18_99" type="car" route="E38_to_-E18" depart="642.0" departLane="random" />
    <vehicle id="E38_to_-E18_100" type="motorcycle" route="E38_to_-E18" depart="643.0" departLane="random" />
    <vehicle id="-E17_to_E7_101" type="truck" route="-E17_to_E7" depart="647.0" departLane="random" />
    <vehicle id="E38_to_E11_102" type="car" route="E38_to_E11" depart="647.0" departLane="random" />
    <vehicle id="E18_to_E7_103" type="motorcycle" route="E18_to_E7" depart="652.0" departLane="random" />
    <vehicle id="E38_to_E11_104" type="truck" route="E38_to_E11" depart="656.0" departLane="random" />
    <vehicle id="-E17_to_E11_105" type="car" route="-E17_to_E11" depart="659.0" departLane="random" />
    <vehicle id="E38_to_-E18_106" type="motorcycle" route="E38_to_-E18" depart="663.0" departLane="random" />
    <vehicle id="-E11_to_E17_107" type="truck" route="-E11_to_E17" depart="664.0" departLane="random" />
    <vehicle id="-E11_to_E7_108" type="car" route="-E11_to_E7" depart="666.0" departLane="random" />
    <vehicle id="E18_to_E17_109" type="motorcycle" route="E18_to_E17" depart="678.0" departLane="random" />
    <vehicle id="-E17_to_-E18_110" type="truck" route="-E17_to_-E18" depart="679.0" departLane="random" />
    <vehicle id="E38_to_E11_111" type="car" route="E38_to_E11" depart="680.0" departLane="random" />
    <vehicle id="E18_to_E7_112" type="motorcycle" route="E18_to_E7" depart="681.0" departLane="random" />
    <vehicle id="E18_to_E7_113" type="truck" route="E18_to_E7" depart="684.0" departLane="random" />
    <vehicle id="-E17_to_E11_114" type="car" route="-E17_to_E11" depart="686.0" departLane="random" />
    <vehicle id="E38_to_E17_115" type="motorcycle" route="E38_to_E17" depart="686.0" departLane="random" />
    <vehicle id="-E11_to_E17_116" type="truck" route="-E11_to_E17" depart="687.0" departLane="random" />
    <vehicle id="-E17_to_E11_117" type="car" route="-E17_to_E11" depart="687.0" departLane="random" />
    <vehicle id="E18_to_E7_118" type="motorcycle" route="E18_to_E7" depart="695.0" departLane="random" />
    <vehicle id="-E17_to_E11_119" type="truck" route="-E17_to_E11" depart="707.0" departLane="random" />
    <vehicle id="E18_to_E7_120" type="car" route="E18_to_E7" depart="710.0" departLane="random" />
    <vehicle id="-E17_to_E11_121" type="motorcycle" route="-E17_to_E11" depart="710.0" departLane="random" />
    <vehicle id="E18_to_E7_122" type="truck" route="E18_to_E7" depart="713.0" departLane="random" />
    <vehicle id="E38_to_E17_123" type="car" route="E38_to_E17" depart="715.0" departLane="random" />
    <vehicle id="E18_to_E7_124" type="motorcycle" route="E18_to_E7" depart="715.0" departLane="random" />
    <vehicle id="-E11_to_E17_125" type="truck" route="-E11_to_E17" depart="716.0" departLane="random" />
    <vehicle id="-E17_to_E7_126" type="car" route="-E17_to_E7" depart="717.0" departLane="random" />
    <vehicle id="E38_to_-E18_127" type="motorcycle" route="E38_to_-E18" depart="717.0" departLane="random" />
    <vehicle id="-E11_to_-E18_128" type="truck" route="-E11_to_-E18" depart="718.0" departLane="random" />
    <vehicle id="E18_to_E7_129" type="car" route="E18_to_E7" depart="725.0" departLane="random" />
    <vehicle id="-E11_to_E17_130" type="motorcycle" route="-E11_to_E17" depart="729.0" departLane="random" />
    <vehicle id="E18_to_E7_131" type="truck" route="E18_to_E7" depart="731.0" departLane="random" />
    <vehicle id="-E17_to_E11_132" type="car" route="-E17_to_E11" depart="731.0" departLane="random" />
    <vehicle id="E38_to_-E18_133" type="motorcycle" route="E38_to_-E18" depart="734.0" departLane="random" />
    <vehicle id="E18_to_E11_134" type="truck" route="E18_to_E11" depart="735.0" departLane="random" />
    <vehicle id="-E11_to_E7_135" type="car" route="-E11_to_E7" depart="736.0" departLane="random" />
    <vehicle id="E18_to_E7_136" type="motorcycle" route="E18_to_E7" depart="737.0" departLane="random" />
    <vehicle id="E18_to_E17_137" type="truck" route="E18_to_E17" depart="738.0" departLane="random" />
    <vehicle id="-E11_to_E17_138" type="car" route="-E11_to_E17" depart="746.0" departLane="random" />
    <vehicle id="E18_to_E7_139" type="motorcycle" route="E18_to_E7" depart="747.0" departLane="random" />
    <vehicle id="-E11_to_E17_140" type="truck" route="-E11_to_E17" depart="748.0" departLane="random" />
    <vehicle id="E18_to_E7_141" type="car" route="E18_to_E7" depart="750.0" departLane="random" />
    <vehicle id="-E11_to_E17_142" type="motorcycle" route="-E11_to_E17" depart="752.0" departLane="random" />
    <vehicle id="E18_to_E7_143" type="truck" route="E18_to_E7" depart="754.0" departLane="random" />
    <vehicle id="E38_to_E11_144" type="car" route="E38_to_E11" depart="755.0" departLane="random" />
    <vehicle id="E38_to_E17_145" type="motorcycle" route="E38_to_E17" depart="757.0" departLane="random" />
    <vehicle id="-E17_to_E11_146" type="truck" route="-E17_to_E11" depart="757.0" departLane="random" />
    <vehicle id="-E17_to_E11_147" type="car" route="-E17_to_E11" depart="757.0" departLane="random" />
    <vehicle id="-E17_to_-E18_148" type="motorcycle" route="-E17_to_-E18" depart="758.0" departLane="random" />
    <vehicle id="E38_to_E17_149" type="truck" route="E38_to_E17" depart="760.0" departLane="random" />
    <vehicle id="-E11_to_E17_150" type="car" route="-E11_to_E17" depart="763.0" departLane="random" />
    <vehicle id="E38_to_E17_151" type="motorcycle" route="E38_to_E17" depart="765.0" departLane="random" />
    <vehicle id="-E11_to_-E18_152" type="truck" route="-E11_to_-E18" depart="767.0" departLane="random" />
    <vehicle id="E38_to_E11_153" type="car" route="E38_to_E11" depart="767.0" departLane="random" />
    <vehicle id="E18_to_E17_154" type="motorcycle" route="E18_to_E17" depart="771.0" departLane="random" />
    <vehicle id="-E17_to_-E18_155" type="truck" route="-E17_to_-E18" depart="772.0" departLane="random" />
    <vehicle id="-E11_to_E17_156" type="car" route="-E11_to_E17" depart="779.0" departLane="random" />
    <vehicle id="E38_to_E11_157" type="motorcycle" route="E38_to_E11" depart="787.0" departLane="random" />
    <vehicle id="-E11_to_E7_158" type="truck" route="-E11_to_E7" depart="787.0" departLane="random" />
    <vehicle id="-E11_to_E7_159" type="car" route="-E11_to_E7" depart="791.0" departLane="random" />
    <vehicle id="-E17_to_E7_160" type="motorcycle" route="-E17_to_E7" depart="791.0" departLane="random" />
    <vehicle id="-E11_to_E17_161" type="truck" route="-E11_to_E17" depart="791.0" departLane="random" />
    <vehicle id="-E17_to_E11_162" type="car" route="-E17_to_E11" depart="791.0" departLane="random" />
    <vehicle id="-E11_to_E7_163" type="motorcycle" route="-E11_to_E7" depart="803.0" departLane="random" />
    <vehicle id="-E11_to_E17_164" type="truck" route="-E11_to_E17" depart="815.0" departLane="random" />
    <vehicle id="E18_to_E11_165" type="car" route="E18_to_E11" depart="819.0" departLane="random" />
    <vehicle id="E18_to_E7_166" type="motorcycle" route="E18_to_E7" depart="820.0" departLane="random" />
    <vehicle id="E18_to_E7_167" type="truck" route="E18_to_E7" depart="826.0" departLane="random" />
    <vehicle id="E38_to_-E18_168" type="car" route="E38_to_-E18" depart="826.0" departLane="random" />
    <vehicle id="-E17_to_E11_169" type="motorcycle" route="-E17_to_E11" depart="828.0" departLane="random" />
    <vehicle id="-E11_to_E17_170" type="truck" route="-E11_to_E17" depart="829.0" departLane="random" />
    <vehicle id="-E17_to_E11_171" type="car" route="-E17_to_E11" depart="832.0" departLane="random" />
    <vehicle id="E18_to_E7_172" type="motorcycle" route="E18_to_E7" depart="834.0" departLane="random" />
    <vehicle id="-E11_to_E17_173" type="truck" route="-E11_to_E17" depart="834.0" departLane="random" />
    <vehicle id="E18_to_E11_174" type="car" route="E18_to_E11" depart="839.0" departLane="random" />
    <vehicle id="E18_to_E7_175" type="motorcycle" route="E18_to_E7" depart="846.0" departLane="random" />
    <vehicle id="E38_to_-E18_176" type="truck" route="E38_to_-E18" depart="848.0" departLane="random" />
    <vehicle id="E18_to_E17_177" type="car" route="E18_to_E17" depart="849.0" departLane="random" />
    <vehicle id="E18_to_E7_178" type="motorcycle" route="E18_to_E7" depart="852.0" departLane="random" />
    <vehicle id="-E11_to_E7_179" type="truck" route="-E11_to_E7" depart="853.0" departLane="random" />
    <vehicle id="-E17_to_E11_180" type="car" route="-E17_to_E11" depart="859.0" departLane="random" />
    <vehicle id="-E11_to_E17_181" type="motorcycle" route="-E11_to_E17" depart="861.0" departLane="random" />
    <vehicle id="-E17_to_E7_182" type="truck" route="-E17_to_E7" depart="862.0" departLane="random" />
    <vehicle id="E18_to_E7_183" type="car" route="E18_to_E7" depart="862.0" departLane="random" />
    <vehicle id="E18_to_E7_184" type="motorcycle" route="E18_to_E7" depart="863.0" departLane="random" />
    <vehicle id="E38_to_-E18_185" type="truck" route="E38_to_-E18" depart="863.0" departLane="random" />
    <vehicle id="E18_to_E11_186" type="car" route="E18_to_E11" depart="865.0" departLane="random" />
    <vehicle id="E38_to_-E18_187" type="motorcycle" route="E38_to_-E18" depart="869.0" departLane="random" />
    <vehicle id="-E11_to_E17_188" type="truck" route="-E11_to_E17" depart="878.0" departLane="random" />
    <vehicle id="-E11_to_E17_189" type="car" route="-E11_to_E17" depart="878.0" departLane="random" />
    <vehicle id="E18_to_E11_190" type="motorcycle" route="E18_to_E11" depart="879.0" departLane="random" />
    <vehicle id="E38_to_-E18_191" type="truck" route="E38_to_-E18" depart="879.0" departLane="random" />
    <vehicle id="E18_to_E7_192" type="car" route="E18_to_E7" depart="889.0" departLane="random" />
    <vehicle id="E18_to_E7_193" type="motorcycle" route="E18_to_E7" depart="889.0" departLane="random" />
    <vehicle id="-E11_to_E7_194" type="truck" route="-E11_to_E7" depart="891.0" departLane="random" />
    <vehicle id="E38_to_E11_195" type="car" route="E38_to_E11" depart="893.0" departLane="random" />
    <vehicle id="E18_to_E7_196" type="motorcycle" route="E18_to_E7" depart="894.0" departLane="random" />
    <vehicle id="-E11_to_E17_197" type="truck" route="-E11_to_E17" depart="901.0" departLane="random" />
    <vehicle id="-E17_to_-E18_198" type="car" route="-E17_to_-E18" depart="902.0" departLane="random" />
    <vehicle id="-E11_to_E17_199" type="motorcycle" route="-E11_to_E17" depart="902.0" departLane="random" />
    <vehicle id="E38_to_-E18_200" type="truck" route="E38_to_-E18" depart="902.0" departLane="random" />
    <vehicle id="E18_to_E7_201" type="car" route="E18_to_E7" depart="904.0" departLane="random" />
    <vehicle id="-E17_to_E11_202" type="motorcycle" route="-E17_to_E11" depart="920.0" departLane="random" />
    <vehicle id="E18_to_E11_203" type="truck" route="E18_to_E11" depart="922.0" departLane="random" />
    <vehicle id="-E17_to_E11_204" type="car" route="-E17_to_E11" depart="922.0" departLane="random" />
    <vehicle id="-E17_to_E11_205" type="motorcycle" route="-E17_to_E11" depart="924.0" departLane="random" />
    <vehicle id="-E11_to_E7_206" type="truck" route="-E11_to_E7" depart="924.0" departLane="random" />
    <vehicle id="E38_to_-E18_207" type="car" route="E38_to_-E18" depart="927.0" departLane="random" />
    <vehicle id="E38_to_E17_208" type="motorcycle" route="E38_to_E17" depart="931.0" departLane="random" />
    <vehicle id="-E17_to_E11_209" type="truck" route="-E17_to_E11" depart="931.0" departLane="random" />
    <vehicle id="E38_to_E17_210" type="car" route="E38_to_E17" depart="932.0" departLane="random" />
    <vehicle id="-E17_to_E11_211" type="motorcycle" route="-E17_to_E11" depart="932.0" departLane="random" />
    <vehicle id="E38_to_-E18_212" type="truck" route="E38_to_-E18" depart="933.0" departLane="random" />
    <vehicle id="E18_to_E7_213" type="car" route="E18_to_E7" depart="935.0" departLane="random" />
    <vehicle id="-E17_to_E11_214" type="motorcycle" route="-E17_to_E11" depart="936.0" departLane="random" />
    <vehicle id="E38_to_E11_215" type="truck" route="E38_to_E11" depart="936.0" departLane="random" />
    <vehicle id="E38_to_E11_216" type="car" route="E38_to_E11" depart="937.0" departLane="random" />
    <vehicle id="-E11_to_-E18_217" type="motorcycle" route="-E11_to_-E18" depart="941.0" departLane="random" />
    <vehicle id="-E17_to_E11_218" type="truck" route="-E17_to_E11" depart="942.0" departLane="random" />
    <vehicle id="-E11_to_E17_219" type="car" route="-E11_to_E17" depart="948.0" departLane="random" />
    <vehicle id="-E11_to_E17_220" type="motorcycle" route="-E11_to_E17" depart="951.0" departLane="random" />
    <vehicle id="E38_to_-E18_221" type="truck" route="E38_to_-E18" depart="954.0" departLane="random" />
    <vehicle id="-E11_to_E17_222" type="car" route="-E11_to_E17" depart="957.0" departLane="random" />
    <vehicle id="E18_to_E7_223" type="motorcycle" route="E18_to_E7" depart="962.0" departLane="random" />
    <vehicle id="-E11_to_-E18_224" type="truck" route="-E11_to_-E18" depart="963.0" departLane="random" />
    <vehicle id="-E11_to_E17_225" type="car" route="-E11_to_E17" depart="964.0" departLane="random" />
    <vehicle id="E18_to_E7_226" type="motorcycle" route="E18_to_E7" depart="967.0" departLane="random" />
    <vehicle id="E38_to_E17_227" type="truck" route="E38_to_E17" depart="970.0" departLane="random" />
    <vehicle id="-E11_to_E17_228" type="car" route="-E11_to_E17" depart="971.0" departLane="random" />
    <vehicle id="-E17_to_-E18_229" type="motorcycle" route="-E17_to_-E18" depart="971.0" departLane="random" />
    <vehicle id="-E11_to_E17_230" type="truck" route="-E11_to_E17" depart="971.0" departLane="random" />
    <vehicle id="E38_to_-E18_231" type="car" route="E38_to_-E18" depart="971.0" departLane="random" />
    <vehicle id="-E17_to_E11_232" type="motorcycle" route="-E17_to_E11" depart="975.0" departLane="random" />
    <vehicle id="-E11_to_E17_233" type="truck" route="-E11_to_E17" depart="978.0" departLane="random" />
    <vehicle id="E38_to_-E18_234" type="car" route="E38_to_-E18" depart="979.0" departLane="random" />
    <vehicle id="-E17_to_E11_235" type="motorcycle" route="-E17_to_E11" depart="983.0" departLane="random" />
    <vehicle id="-E17_to_E11_236" type="truck" route="-E17_to_E11" depart="985.0" departLane="random" />
    <vehicle id="E38_to_-E18_237" type="car" route="E38_to_-E18" depart="987.0" departLane="random" />
    <vehicle id="E18_to_E17_238" type="motorcycle" route="E18_to_E17" depart="992.0" departLane="random" />
    <vehicle id="-E11_to_E17_239" type="truck" route="-E11_to_E17" depart="992.0" departLane="random" />
    <vehicle id="E38_to_E11_240" type="car" route="E38_to_E11" depart="993.0" departLane="random" />
    <vehicle id="E38_to_E11_241" type="motorcycle" route="E38_to_E11" depart="996.0" departLane="random" />
    <vehicle id="E38_to_-E18_242" type="truck" route="E38_to_-E18" depart="997.0" departLane="random" />
    <vehicle id="-E11_to_-E18_243" type="car" route="-E11_to_-E18" depart="998.0" departLane="random" />
    <vehicle id="-E17_to_E11_244" type="motorcycle" route="-E17_to_E11" depart="998.0" departLane="random" />
    <vehicle id="E38_to_E17_245" type="truck" route="E38_to_E17" depart="1005.0" departLane="random" />
    <vehicle id="E38_to_E17_246" type="car" route="E38_to_E17" depart="1008.0" departLane="random" />
    <vehicle id="-E11_to_-E18_247" type="motorcycle" route="-E11_to_-E18" depart="1010.0" departLane="random" />
    <vehicle id="E38_to_-E18_248" type="truck" route="E38_to_-E18" depart="1015.0" departLane="random" />
    <vehicle id="E38_to_-E18_249" type="car" route="E38_to_-E18" depart="1016.0" departLane="random" />
    <vehicle id="-E17_to_-E18_250" type="motorcycle" route="-E17_to_-E18" depart="1016.0" departLane="random" />
    <vehicle id="E18_to_E11_251" type="truck" route="E18_to_E11" depart="1017.0" departLane="random" />
    <vehicle id="E38_to_-E18_252" type="car" route="E38_to_-E18" depart="1017.0" departLane="random" />
    <vehicle id="E18_to_E7_253" type="motorcycle" route="E18_to_E7" depart="1017.0" departLane="random" />
    <vehicle id="E18_to_E7_254" type="truck" route="E18_to_E7" depart="1025.0" departLane="random" />
    <vehicle id="-E17_to_E11_255" type="car" route="-E17_to_E11" depart="1025.0" departLane="random" />
    <vehicle id="-E11_to_E17_256" type="motorcycle" route="-E11_to_E17" depart="1026.0" departLane="random" />
    <vehicle id="-E11_to_E7_257" type="truck" route="-E11_to_E7" depart="1027.0" departLane="random" />
    <vehicle id="E18_to_E7_258" type="car" route="E18_to_E7" depart="1028.0" departLane="random" />
    <vehicle id="-E11_to_E17_259" type="motorcycle" route="-E11_to_E17" depart="1034.0" departLane="random" />
    <vehicle id="E38_to_E11_260" type="truck" route="E38_to_E11" depart="1040.0" departLane="random" />
    <vehicle id="E18_to_E7_261" type="car" route="E18_to_E7" depart="1044.0" departLane="random" />
    <vehicle id="-E11_to_-E18_262" type="motorcycle" route="-E11_to_-E18" depart="1044.0" departLane="random" />
    <vehicle id="E18_to_E7_263" type="truck" route="E18_to_E7" depart="1044.0" departLane="random" />
    <vehicle id="-E11_to_E17_264" type="car" route="-E11_to_E17" depart="1049.0" departLane="random" />
    <vehicle id="-E17_to_-E18_265" type="motorcycle" route="-E17_to_-E18" depart="1053.0" departLane="random" />
    <vehicle id="E38_to_-E18_266" type="truck" route="E38_to_-E18" depart="1053.0" departLane="random" />
    <vehicle id="-E11_to_E17_267" type="car" route="-E11_to_E17" depart="1055.0" departLane="random" />
    <vehicle id="E18_to_E7_268" type="motorcycle" route="E18_to_E7" depart="1055.0" departLane="random" />
    <vehicle id="-E11_to_E17_269" type="truck" route="-E11_to_E17" depart="1055.0" departLane="random" />
    <vehicle id="-E11_to_E7_270" type="car" route="-E11_to_E7" depart="1058.0" departLane="random" />
    <vehicle id="E18_to_E7_271" type="motorcycle" route="E18_to_E7" depart="1058.0" departLane="random" />
    <vehicle id="-E17_to_E11_272" type="truck" route="-E17_to_E11" depart="1058.0" departLane="random" />
    <vehicle id="-E17_to_E11_273" type="car" route="-E17_to_E11" depart="1060.0" departLane="random" />
    <vehicle id="-E11_to_E7_274" type="motorcycle" route="-E11_to_E7" depart="1060.0" departLane="random" />
    <vehicle id="-E17_to_-E18_275" type="truck" route="-E17_to_-E18" depart="1061.0" departLane="random" />
    <vehicle id="-E11_to_E17_276" type="car" route="-E11_to_E17" depart="1061.0" departLane="random" />
    <vehicle id="-E11_to_E17_277" type="motorcycle" route="-E11_to_E17" depart="1063.0" departLane="random" />
    <vehicle id="-E17_to_-E18_278" type="truck" route="-E17_to_-E18" depart="1066.0" departLane="random" />