<routes>
    <vType id="car" length="5" width="2" accel="2.6" decel="4.5" />
    <vType id="motorcycle" length="2" width="0.8" accel="3.5" decel="4.0" />
    <vType id="truck" length="12" width="2.5" accel="1.0" decel="3.0" />
    
    <route id="-E23_to_E24" edges="-E23 E24" />
    <route id="-E23_to_-E8" edges="-E23 -E8" />
    <route id="E26_to_-E8" edges="E26 -E8" />
    <route id="E26_to_E23" edges="E26 E23" />
    <route id="E8_to_E23" edges="E8 E23" />
    <route id="E8_to_E24" edges="E8 E24" />
   <vehicle id="E8_to_E24_0" type="car" route="E8_to_E24" depart="8.0" departLane="random" />
    <vehicle id="E8_to_E24_1" type="motorcycle" route="E8_to_E24" depart="8.0" departLane="random" />
    <vehicle id="-E23_to_-E8_2" type="truck" route="-E23_to_-E8" depart="66.0" departLane="random" />
    <vehicle id="E26_to_-E8_3" type="car" route="E26_to_-E8" depart="100.0" departLane="random" />
    <vehicle id="E26_to_-E8_4" type="motorcycle" route="E26_to_-E8" depart="119.0" departLane="random" />
    <vehicle id="E8_to_E24_5" type="truck" route="E8_to_E24" depart="122.0" departLane="random" />
    <vehicle id="-E23_to_-E8_6" type="car" route="-E23_to_-E8" depart="122.0" departLane="random" />
    <vehicle id="E26_to_E23_7" type="motorcycle" route="E26_to_E23" depart="146.0" departLane="random" />
    <vehicle id="E8_to_E24_8" type="truck" route="E8_to_E24" depart="149.0" departLane="random" />
    <vehicle id="E26_to_-E8_9" type="car" route="E26_to_-E8" depart="149.0" departLane="random" />
    <vehicle id="E8_to_E24_10" type="motorcycle" route="E8_to_E24" depart="169.0" departLane="random" />
    <vehicle id="-E23_to_-E8_11" type="truck" route="-E23_to_-E8" depart="213.0" departLane="random" />
    <vehicle id="E8_to_E24_12" type="car" route="E8_to_E24" depart="214.0" departLane="random" />
    <vehicle id="E26_to_-E8_13" type="motorcycle" route="E26_to_-E8" depart="219.0" departLane="random" />
    <vehicle id="E26_to_-E8_14" type="truck" route="E26_to_-E8" depart="222.0" departLane="random" />
    <vehicle id="E8_to_E24_15" type="car" route="E8_to_E24" depart="225.0" departLane="random" />
    <vehicle id="E8_to_E24_16" type="motorcycle" route="E8_to_E24" depart="227.0" departLane="random" />
    <vehicle id="E26_to_-E8_17" type="truck" route="E26_to_-E8" depart="279.0" departLane="random" />
    <vehicle id="E8_to_E23_18" type="car" route="E8_to_E23" depart="305.0" departLane="random" />
    <vehicle id="E26_to_-E8_19" type="motorcycle" route="E26_to_-E8" depart="305.0" departLane="random" />
    <vehicle id="-E23_to_E24_20" type="truck" route="-E23_to_E24" depart="322.0" departLane="random" />
    <vehicle id="E8_to_E24_21" type="car" route="E8_to_E24" depart="326.0" departLane="random" />
    <vehicle id="-E23_to_E24_22" type="motorcycle" route="-E23_to_E24" depart="326.0" departLane="random" />
    <vehicle id="-E23_to_-E8_23" type="truck" route="-E23_to_-E8" depart="342.0" departLane="random" />
    <vehicle id="E26_to_-E8_24" type="car" route="E26_to_-E8" depart="347.0" departLane="random" />
    <vehicle id="E26_to_-E8_25" type="motorcycle" route="E26_to_-E8" depart="353.0" departLane="random" />
    <vehicle id="E26_to_E23_26" type="truck" route="E26_to_E23" depart="356.0" departLane="random" />
    <vehicle id="E8_to_E24_27" type="car" route="E8_to_E24" depart="361.0" departLane="random" />
    <vehicle id="E8_to_E24_28" type="motorcycle" route="E8_to_E24" depart="363.0" departLane="random" />
    <vehicle id="E26_to_-E8_29" type="truck" route="E26_to_-E8" depart="364.0" departLane="random" />
    <vehicle id="E26_to_-E8_30" type="car" route="E26_to_-E8" depart="372.0" departLane="random" />
    <vehicle id="E26_to_-E8_31" type="motorcycle" route="E26_to_-E8" depart="372.0" departLane="random" />
    <vehicle id="E8_to_E24_32" type="truck" route="E8_to_E24" depart="373.0" departLane="random" />
    <vehicle id="E26_to_-E8_33" type="car" route="E26_to_-E8" depart="379.0" departLane="random" />
    <vehicle id="E26_to_-E8_34" type="motorcycle" route="E26_to_-E8" depart="380.0" departLane="random" />
    <vehicle id="E8_to_E24_35" type="truck" route="E8_to_E24" depart="390.0" departLane="random" />
    <vehicle id="E8_to_E24_36" type="car" route="E8_to_E24" depart="394.0" departLane="random" />
    <vehicle id="E8_to_E24_37" type="motorcycle" route="E8_to_E24" depart="400.0" departLane="random" />
    <vehicle id="E8_to_E24_38" type="truck" route="E8_to_E24" depart="403.0" departLane="random" />
    <vehicle id="E8_to_E24_39" type="car" route="E8_to_E24" depart="404.0" departLane="random" />
    <vehicle id="E26_to_-E8_40" type="motorcycle" route="E26_to_-E8" depart="409.0" departLane="random" />
    <vehicle id="-E23_to_E24_41" type="truck" route="-E23_to_E24" depart="412.0" departLane="random" />
    <vehicle id="E26_to_-E8_42" type="car" route="E26_to_-E8" depart="414.0" departLane="random" />
    <vehicle id="E8_to_E24_43" type="motorcycle" route="E8_to_E24" depart="427.0" departLane="random" />
    <vehicle id="E8_to_E24_44" type="truck" route="E8_to_E24" depart="442.0" departLane="random" />
    <vehicle id="E26_to_-E8_45" type="car" route="E26_to_-E8" depart="443.0" departLane="random" />
    <vehicle id="E26_to_E23_46" type="motorcycle" route="E26_to_E23" depart="459.0" departLane="random" />
    <vehicle id="E8_to_E23_47" type="truck" route="E8_to_E23" depart="461.0" departLane="random" />
    <vehicle id="-E23_to_-E8_48" type="car" route="-E23_to_-E8" depart="463.0" departLane="random" />
    <vehicle id="E26_to_-E8_49" type="motorcycle" route="E26_to_-E8" depart="469.0" departLane="random" />
    <vehicle id="E8_to_E24_50" type="truck" route="E8_to_E24" depart="470.0" departLane="random" />
    <vehicle id="E26_to_-E8_51" type="car" route="E26_to_-E8" depart="472.0" departLane="random" />
    <vehicle id="E26_to_-E8_52" type="motorcycle" route="E26_to_-E8" depart="480.0" departLane="random" />
    <vehicle id="E26_to_-E8_53" type="truck" route="E26_to_-E8" depart="502.0" departLane="random" />
    <vehicle id="E8_to_E24_54" type="car" route="E8_to_E24" depart="507.0" departLane="random" />
    <vehicle id="E8_to_E23_55" type="motorcycle" route="E8_to_E23" depart="508.0" departLane="random" />
    <vehicle id="E8_to_E24_56" type="truck" route="E8_to_E24" depart="509.0" departLane="random" />
    <vehicle id="-E23_to_E24_57" type="car" route="-E23_to_E24" depart="509.0" departLane="random" />
    <vehicle id="E26_to_-E8_58" type="motorcycle" route="E26_to_-E8" depart="510.0" departLane="random" />
    <vehicle id="E8_to_E24_59" type="truck" route="E8_to_E24" depart="512.0" departLane="random" />
    <vehicle id="E26_to_-E8_60" type="car" route="E26_to_-E8" depart="515.0" departLane="random" />
    <vehicle id="E26_to_-E8_61" type="motorcycle" route="E26_to_-E8" depart="517.0" departLane="random" />
    <vehicle id="E26_to_-E8_62" type="truck" route="E26_to_-E8" depart="518.0" departLane="random" />
    <vehicle id="E8_to_E24_63" type="car" route="E8_to_E24" depart="531.0" departLane="random" />
    <vehicle id="-E23_to_-E8_64" type="motorcycle" route="-E23_to_-E8" depart="533.0" departLane="random" />
    <vehicle id="E8_to_E23_65" type="truck" route="E8_to_E23" depart="541.0" departLane="random" />
    <vehicle id="E26_to_-E8_66" type="car" route="E26_to_-E8" depart="548.0" departLane="random" />
    <vehicle id="E8_to_E24_67" type="motorcycle" route="E8_to_E24" depart="551.0" departLane="random" />
    <vehicle id="E26_to_E23_68" type="truck" route="E26_to_E23" depart="561.0" departLane="random" />
    <vehicle id="E26_to_-E8_69" type="car" route="E26_to_-E8" depart="564.0" departLane="random" />
    <vehicle id="-E23_to_-E8_70" type="motorcycle" route="-E23_to_-E8" depart="569.0" departLane="random" />
    <vehicle id="E26_to_-E8_71" type="truck" route="E26_to_-E8" depart="571.0" departLane="random" />
    <vehicle id="E26_to_-E8_72" type="car" route="E26_to_-E8" depart="575.0" departLane="random" />
    <vehicle id="E8_to_E24_73" type="motorcycle" route="E8_to_E24" depart="575.0" departLane="random" />
    <vehicle id="-E23_to_-E8_74" type="truck" route="-E23_to_-E8" depart="581.0" departLane="random" />
    <vehicle id="E26_to_-E8_75" type="car" route="E26_to_-E8" depart="582.0" departLane="random" />
    <vehicle id="-E23_to_E24_76" type="motorcycle" route="-E23_to_E24" depart="585.0" departLane="random" />
    <vehicle id="E26_to_-E8_77" type="truck" route="E26_to_-E8" depart="588.0" departLane="random" />
    <vehicle id="E8_to_E24_78" type="car" route="E8_to_E24" depart="588.0" departLane="random" />
    <vehicle id="-E23_to_E24_79" type="motorcycle" route="-E23_to_E24" depart="589.0" departLane="random" />
    <vehicle id="E26_to_-E8_80" type="truck" route="E26_to_-E8" depart="595.0" departLane="random" />
    <vehicle id="E8_to_E24_81" type="car" route="E8_to_E24" depart="596.0" departLane="random" />
    <vehicle id="E8_to_E24_82" type="motorcycle" route="E8_to_E24" depart="597.0" departLane="random" />
    <vehicle id="E26_to_-E8_83" type="truck" route="E26_to_-E8" depart="601.0" departLane="random" />
    <vehicle id="E8_to_E24_84" type="car" route="E8_to_E24" depart="602.0" departLane="random" />
    <vehicle id="E26_to_-E8_85" type="motorcycle" route="E26_to_-E8" depart="602.0" departLane="random" />
    <vehicle id="E26_to_-E8_86" type="truck" route="E26_to_-E8" depart="602.0" departLane="random" />
    <vehicle id="E8_to_E24_87" type="car" route="E8_to_E24" depart="604.0" departLane="random" />
    <vehicle id="E26_to_-E8_88" type="motorcycle" route="E26_to_-E8" depart="606.0" departLane="random" />
    <vehicle id="E26_to_-E8_89" type="truck" route="E26_to_-E8" depart="611.0" departLane="random" />
    <vehicle id="E26_to_-E8_90" type="car" route="E26_to_-E8" depart="614.0" departLane="random" />
    <vehicle id="E8_to_E24_91" type="motorcycle" route="E8_to_E24" depart="615.0" departLane="random" />
    <vehicle id="E26_to_-E8_92" type="truck" route="E26_to_-E8" depart="619.0" departLane="random" />
    <vehicle id="E26_to_-E8_93" type="car" route="E26_to_-E8" depart="622.0" departLane="random" />
    <vehicle id="E26_to_-E8_94" type="motorcycle" route="E26_to_-E8" depart="622.0" departLane="random" />
    <vehicle id="E8_to_E24_95" type="truck" route="E8_to_E24" depart="626.0" departLane="random" />
    <vehicle id="E8_to_E24_96" type="car" route="E8_to_E24" depart="627.0" departLane="random" />
    <vehicle id="E8_to_E23_97" type="motorcycle" route="E8_to_E23" depart="631.0" departLane="random" />
    <vehicle id="-E23_to_E24_98" type="truck" route="-E23_to_E24" depart="640.0" departLane="random" />
    <vehicle id="E8_to_E24_99" type="car" route="E8_to_E24" depart="642.0" departLane="random" />
    <vehicle id="E8_to_E24_100" type="motorcycle" route="E8_to_E24" depart="643.0" departLane="random" />
    <vehicle id="E26_to_E23_101" type="truck" route="E26_to_E23" depart="647.0" departLane="random" />
    <vehicle id="E26_to_-E8_102" type="car" route="E26_to_-E8" depart="647.0" departLane="random" />
    <vehicle id="E26_to_-E8_103" type="motorcycle" route="E26_to_-E8" depart="652.0" departLane="random" />
    <vehicle id="E26_to_E23_104" type="truck" route="E26_to_E23" depart="656.0" departLane="random" />
    <vehicle id="E8_to_E24_105" type="car" route="E8_to_E24" depart="659.0" departLane="random" />
    <vehicle id="E8_to_E24_106" type="motorcycle" route="E8_to_E24" depart="663.0" departLane="random" />
    <vehicle id="E26_to_-E8_107" type="truck" route="E26_to_-E8" depart="664.0" departLane="random" />
    <vehicle id="E8_to_E24_108" type="car" route="E8_to_E24" depart="666.0" departLane="random" />
    <vehicle id="-E23_to_E24_109" type="motorcycle" route="-E23_to_E24" depart="678.0" departLane="random" />
    <vehicle id="E8_to_E24_110" type="truck" route="E8_to_E24" depart="679.0" departLane="random" />
    <vehicle id="E26_to_E23_111" type="car" route="E26_to_E23" depart="680.0" departLane="random" />
    <vehicle id="E26_to_-E8_112" type="motorcycle" route="E26_to_-E8" depart="681.0" departLane="random" />
    <vehicle id="E26_to_-E8_113" type="truck" route="E26_to_-E8" depart="684.0" departLane="random" />
    <vehicle id="E8_to_E24_114" type="car" route="E8_to_E24" depart="686.0" departLane="random" />
    <vehicle id="E8_to_E23_115" type="motorcycle" route="E8_to_E23" depart="686.0" departLane="random" />
    <vehicle id="E26_to_-E8_116" type="truck" route="E26_to_-E8" depart="687.0" departLane="random" />
    <vehicle id="E8_to_E24_117" type="car" route="E8_to_E24" depart="687.0" departLane="random" />
    <vehicle id="E26_to_-E8_118" type="motorcycle" route="E26_to_-E8" depart="695.0" departLane="random" />
    <vehicle id="E8_to_E24_119" type="truck" route="E8_to_E24" depart="707.0" departLane="random" />
    <vehicle id="E26_to_-E8_120" type="car" route="E26_to_-E8" depart="710.0" departLane="random" />
    <vehicle id="E8_to_E24_121" type="motorcycle" route="E8_to_E24" depart="710.0" departLane="random" />
    <vehicle id="E26_to_-E8_122" type="truck" route="E26_to_-E8" depart="713.0" departLane="random" />
    <vehicle id="E8_to_E23_123" type="car" route="E8_to_E23" depart="715.0" departLane="random" />
    <vehicle id="E26_to_-E8_124" type="motorcycle" route="E26_to_-E8" depart="715.0" departLane="random" />
    <vehicle id="E26_to_-E8_125" type="truck" route="E26_to_-E8" depart="716.0" departLane="random" />
    <vehicle id="E26_to_E23_126" type="car" route="E26_to_E23" depart="717.0" departLane="random" />
    <vehicle id="E8_to_E24_127" type="motorcycle" route="E8_to_E24" depart="717.0" departLane="random" />
    <vehicle id="E26_to_-E8_128" type="truck" route="E26_to_-E8" depart="718.0" departLane="random" />
    <vehicle id="E26_to_-E8_129" type="car" route="E26_to_-E8" depart="725.0" departLane="random" />
    <vehicle id="E26_to_-E8_130" type="motorcycle" route="E26_to_-E8" depart="729.0" departLane="random" />
    <vehicle id="E26_to_-E8_131" type="truck" route="E26_to_-E8" depart="731.0" departLane="random" />
    <vehicle id="E8_to_E24_132" type="car" route="E8_to_E24" depart="731.0" departLane="random" />
    <vehicle id="E8_to_E24_133" type="motorcycle" route="E8_to_E24" depart="734.0" departLane="random" />
    <vehicle id="E8_to_E24_134" type="truck" route="E8_to_E24" depart="735.0" departLane="random" />
    <vehicle id="-E23_to_-E8_135" type="car" route="-E23_to_-E8" depart="736.0" departLane="random" />
    <vehicle id="E26_to_-E8_136" type="motorcycle" route="E26_to_-E8" depart="737.0" departLane="random" />
    <vehicle id="-E23_to_E24_137" type="truck" route="-E23_to_E24" depart="738.0" departLane="random" />
    <vehicle id="E26_to_-E8_138" type="car" route="E26_to_-E8" depart="746.0" departLane="random" />
    <vehicle id="E26_to_-E8_139" type="motorcycle" route="E26_to_-E8" depart="747.0" departLane="random" />
    <vehicle id="E26_to_-E8_140" type="truck" route="E26_to_-E8" depart="748.0" departLane="random" />
    <vehicle id="E26_to_-E8_141" type="car" route="E26_to_-E8" depart="750.0" departLane="random" />
    <vehicle id="E26_to_-E8_142" type="motorcycle" route="E26_to_-E8" depart="752.0" departLane="random" />
    <vehicle id="E26_to_-E8_143" type="truck" route="E26_to_-E8" depart="754.0" departLane="random" />
    <vehicle id="E26_to_E23_144" type="car" route="E26_to_E23" depart="755.0" departLane="random" />
    <vehicle id="E8_to_E24_145" type="motorcycle" route="E8_to_E24" depart="757.0" departLane="random" />
    <vehicle id="E8_to_E24_146" type="truck" route="E8_to_E24" depart="757.0" departLane="random" />
    <vehicle id="E8_to_E24_147" type="car" route="E8_to_E24" depart="757.0" departLane="random" />
    <vehicle id="E8_to_E24_148" type="motorcycle" route="E8_to_E24" depart="758.0" departLane="random" />
    <vehicle id="E8_to_E23_149" type="truck" route="E8_to_E23" depart="760.0" departLane="random" />
    <vehicle id="E26_to_-E8_150" type="car" route="E26_to_-E8" depart="763.0" departLane="random" />
    <vehicle id="E8_to_E23_151" type="motorcycle" route="E8_to_E23" depart="765.0" departLane="random" />
    <vehicle id="-E23_to_E24_152" type="truck" route="-E23_to_E24" depart="767.0" departLane="random" />
    <vehicle id="E26_to_E23_153" type="car" route="E26_to_E23" depart="767.0" departLane="random" />
    <vehicle id="-E23_to_E24_154" type="motorcycle" route="-E23_to_E24" depart="771.0" departLane="random" />
    <vehicle id="E8_to_E24_155" type="truck" route="E8_to_E24" depart="772.0" departLane="random" />
    <vehicle id="E26_to_-E8_156" type="car" route="E26_to_-E8" depart="779.0" departLane="random" />
    <vehicle id="E26_to_E23_157" type="motorcycle" route="E26_to_E23" depart="787.0" departLane="random" />
    <vehicle id="-E23_to_-E8_158" type="truck" route="-E23_to_-E8" depart="787.0" departLane="random" />
    <vehicle id="E8_to_E24_159" type="car" route="E8_to_E24" depart="791.0" departLane="random" />
    <vehicle id="E26_to_-E8_160" type="motorcycle" route="E26_to_-E8" depart="791.0" departLane="random" />
    <vehicle id="E26_to_-E8_161" type="truck" route="E26_to_-E8" depart="791.0" departLane="random" />
    <vehicle id="E8_to_E24_162" type="car" route="E8_to_E24" depart="791.0" departLane="random" />
    <vehicle id="-E23_to_-E8_163" type="motorcycle" route="-E23_to_-E8" depart="803.0" departLane="random" />
    <vehicle id="E26_to_-E8_164" type="truck" route="E26_to_-E8" depart="815.0" departLane="random" />
    <vehicle id="E8_to_E24_165" type="car" route="E8_to_E24" depart="819.0" departLane="random" />
    <vehicle id="E26_to_-E8_166" type="motorcycle" route="E26_to_-E8" depart="820.0" departLane="random" />
    <vehicle id="E26_to_-E8_167" type="truck" route="E26_to_-E8" depart="826.0" departLane="random" />
    <vehicle id="E8_to_E24_168" type="car" route="E8_to_E24" depart="826.0" departLane="random" />
    <vehicle id="E8_to_E24_169" type="motorcycle" route="E8_to_E24" depart="828.0" departLane="random" />
    <vehicle id="E26_to_-E8_170" type="truck" route="E26_to_-E8" depart="829.0" departLane="random" />
    <vehicle id="E8_to_E24_171" type="car" route="E8_to_E24" depart="832.0" departLane="random" />
    <vehicle id="E26_to_-E8_172" type="motorcycle" route="E26_to_-E8" depart="834.0" departLane="random" />
    <vehicle id="E26_to_-E8_173" type="truck" route="E26_to_-E8" depart="834.0" departLane="random" />
    <vehicle id="-E23_to_-E8_174" type="car" route="-E23_to_-E8" depart="839.0" departLane="random" />
    <vehicle id="E26_to_-E8_175" type="motorcycle" route="E26_to_-E8" depart="846.0" departLane="random" />
    <vehicle id="E8_to_E24_176" type="truck" route="E8_to_E24" depart="848.0" departLane="random" />
    <vehicle id="E26_to_-E8_177" type="car" route="E26_to_-E8" depart="849.0" departLane="random" />
    <vehicle id="E26_to_-E8_178" type="motorcycle" route="E26_to_-E8" depart="852.0" departLane="random" />
    <vehicle id="E8_to_E24_179" type="truck" route="E8_to_E24" depart="853.0" departLane="random" />
    <vehicle id="E8_to_E24_180" type="car" route="E8_to_E24" depart="859.0" departLane="random" />
    <vehicle id="E26_to_-E8_181" type="motorcycle" route="E26_to_-E8" depart="861.0" departLane="random" />
    <vehicle id="E26_to_E23_182" type="truck" route="E26_to_E23" depart="862.0" departLane="random" />
    <vehicle id="E26_to_-E8_183" type="car" route="E26_to_-E8" depart="862.0" departLane="random" />
    <vehicle id="E26_to_-E8_184" type="motorcycle" route="E26_to_-E8" depart="863.0" departLane="random" />
    <vehicle id="E8_to_E24_185" type="truck" route="E8_to_E24" depart="863.0" departLane="random" />
    <vehicle id="-E23_to_-E8_186" type="car" route="-E23_to_-E8" depart="865.0" departLane="random" />
    <vehicle id="E8_to_E24_187" type="motorcycle" route="E8_to_E24" depart="869.0" departLane="random" />
    <vehicle id="E26_to_-E8_188" type="truck" route="E26_to_-E8" depart="878.0" departLane="random" />
    <vehicle id="E26_to_-E8_189" type="car" route="E26_to_-E8" depart="878.0" departLane="random" />
    <vehicle id="-E23_to_-E8_190" type="motorcycle" route="-E23_to_-E8" depart="879.0" departLane="random" />
    <vehicle id="E8_to_E24_191" type="truck" route="E8_to_E24" depart="879.0" departLane="random" />
    <vehicle id="E26_to_-E8_192" type="car" route="E26_to_-E8" depart="889.0" departLane="random" />
    <vehicle id="E26_to_-E8_193" type="motorcycle" route="E26_to_-E8" depart="889.0" departLane="random" />
    <vehicle id="-E23_to_-E8_194" type="truck" route="-E23_to_-E8" depart="891.0" departLane="random" />
    <vehicle id="E26_to_-E8_195" type="car" route="E26_to_-E8" depart="893.0" departLane="random" />
    <vehicle id="E26_to_-E8_196" type="motorcycle" route="E26_to_-E8" depart="894.0" departLane="random" />
    <vehicle id="E26_to_-E8_197" type="truck" route="E26_to_-E8" depart="901.0" departLane="random" />
    <vehicle id="E8_to_E24_198" type="car" route="E8_to_E24" depart="902.0" departLane="random" />
    <vehicle id="E26_to_-E8_199" type="motorcycle" route="E26_to_-E8" depart="902.0" departLane="random" />
    <vehicle id="E8_to_E24_200" type="truck" route="E8_to_E24" depart="902.0" departLane="random" />
    <vehicle id="E26_to_-E8_201" type="car" route="E26_to_-E8" depart="904.0" departLane="random" />
    <vehicle id="E8_to_E24_202" type="motorcycle" route="E8_to_E24" depart="920.0" departLane="random" />
    <vehicle id="-E23_to_-E8_203" type="truck" route="-E23_to_-E8" depart="922.0" departLane="random" />
    <vehicle id="E8_to_E24_204" type="car" route="E8_to_E24" depart="922.0" departLane="random" />
    <vehicle id="E8_to_E24_205" type="motorcycle" route="E8_to_E24" depart="924.0" departLane="random" />
    <vehicle id="E8_to_E24_206" type="truck" route="E8_to_E24" depart="924.0" departLane="random" />
    <vehicle id="E8_to_E24_207" type="car" route="E8_to_E24" depart="927.0" departLane="random" />
    <vehicle id="E8_to_E23_208" type="motorcycle" route="E8_to_E23" depart="931.0" departLane="random" />
    <vehicle id="E8_to_E24_209" type="truck" route="E8_to_E24" depart="931.0" departLane="random" />
    <vehicle id="E8_to_E23_210" type="car" route="E8_to_E23" depart="932.0" departLane="random" />
    <vehicle id="E8_to_E24_211" type="motorcycle" route="E8_to_E24" depart="932.0" departLane="random" />
    <vehicle id="E8_to_E24_212" type="truck" route="E8_to_E24" depart="933.0" departLane="random" />
    <vehicle id="E26_to_-E8_213" type="car" route="E26_to_-E8" depart="935.0" departLane="random" />
    <vehicle id="E8_to_E24_214" type="motorcycle" route="E8_to_E24" depart="936.0" departLane="random" />
    <vehicle id="E26_to_-E8_215" type="truck" route="E26_to_-E8" depart="936.0" departLane="random" />
    <vehicle id="E26_to_E23_216" type="car" route="E26_to_E23" depart="937.0" departLane="random" />
    <vehicle id="-E23_to_E24_217" type="motorcycle" route="-E23_to_E24" depart="941.0" departLane="random" />
    <vehicle id="E8_to_E24_218" type="truck" route="E8_to_E24" depart="942.0" departLane="random" />
    <vehicle id="E26_to_-E8_219" type="car" route="E26_to_-E8" depart="948.0" departLane="random" />
    <vehicle id="E26_to_-E8_220" type="motorcycle" route="E26_to_-E8" depart="951.0" departLane="random" />
    <vehicle id="E8_to_E24_221" type="truck" route="E8_to_E24" depart="954.0" departLane="random" />
    <vehicle id="E26_to_-E8_222" type="car" route="E26_to_-E8" depart="957.0" departLane="random" />
    <vehicle id="E26_to_-E8_223" type="motorcycle" route="E26_to_-E8" depart="962.0" departLane="random" />
    <vehicle id="-E23_to_E24_224" type="truck" route="-E23_to_E24" depart="963.0" departLane="random" />
    <vehicle id="E26_to_-E8_225" type="car" route="E26_to_-E8" depart="964.0" departLane="random" />
    <vehicle id="E26_to_-E8_226" type="motorcycle" route="E26_to_-E8" depart="967.0" departLane="random" />
    <vehicle id="E8_to_E23_227" type="truck" route="E8_to_E23" depart="970.0" departLane="random" />
    <vehicle id="E26_to_-E8_228" type="car" route="E26_to_-E8" depart="971.0" departLane="random" />
    <vehicle id="E8_to_E24_229" type="motorcycle" route="E8_to_E24" depart="971.0" departLane="random" />
    <vehicle id="E26_to_-E8_230" type="truck" route="E26_to_-E8" depart="971.0" departLane="random" />
    <vehicle id="E8_to_E24_231" type="car" route="E8_to_E24" depart="971.0" departLane="random" />
    <vehicle id="E8_to_E24_232" type="motorcycle" route="E8_to_E24" depart="975.0" departLane="random" />
    <vehicle id="E26_to_-E8_233" type="truck" route="E26_to_-E8" depart="978.0" departLane="random" />
    <vehicle id="E8_to_E24_234" type="car" route="E8_to_E24" depart="979.0" departLane="random" />
    <vehicle id="E8_to_E24_235" type="motorcycle" route="E8_to_E24" depart="983.0" departLane="random" />
    <vehicle id="E8_to_E24_236" type="truck" route="E8_to_E24" depart="985.0" departLane="random" />
    <vehicle id="E8_to_E24_237" type="car" route="E8_to_E24" depart="987.0" departLane="random" />
    <vehicle id="E26_to_-E8_238" type="motorcycle" route="E26_to_-E8" depart="992.0" departLane="random" />
    <vehicle id="E26_to_-E8_239" type="truck" route="E26_to_-E8" depart="992.0" departLane="random" />
    <vehicle id="E26_to_E23_240" type="car" route="E26_to_E23" depart="993.0" departLane="random" />
    <vehicle id="E26_to_-E8_241" type="motorcycle" route="E26_to_-E8" depart="996.0" departLane="random" />
    <vehicle id="E8_to_E24_242" type="truck" route="E8_to_E24" depart="997.0" departLane="random" />
    <vehicle id="-E23_to_E24_243" type="car" route="-E23_to_E24" depart="998.0" departLane="random" />
    <vehicle id="E8_to_E24_244" type="motorcycle" route="E8_to_E24" depart="998.0" departLane="random" />
    <vehicle id="E8_to_E24_245" type="truck" route="E8_to_E24" depart="1005.0" departLane="random" />
    <vehicle id="E8_to_E23_246" type="car" route="E8_to_E23" depart="1008.0" departLane="random" />
    <vehicle id="-E23_to_E24_247" type="motorcycle" route="-E23_to_E24" depart="1010.0" departLane="random" />
    <vehicle id="E8_to_E24_248" type="truck" route="E8_to_E24" depart="1015.0" departLane="random" />
    <vehicle id="E8_to_E24_249" type="car" route="E8_to_E24" depart="1016.0" departLane="random" />
    <vehicle id="E8_to_E24_250" type="motorcycle" route="E8_to_E24" depart="1016.0" departLane="random" />
    <vehicle id="-E23_to_-E8_251" type="truck" route="-E23_to_-E8" depart="1017.0" departLane="random" />
    <vehicle id="E8_to_E24_252" type="car" route="E8_to_E24" depart="1017.0" departLane="random" />
    <vehicle id="E26_to_-E8_253" type="motorcycle" route="E26_to_-E8" depart="1017.0" departLane="random" />
    <vehicle id="E26_to_-E8_254" type="truck" route="E26_to_-E8" depart="1025.0" departLane="random" />
    <vehicle id="E8_to_E24_255" type="car" route="E8_to_E24" depart="1025.0" departLane="random" />
    <vehicle id="E26_to_-E8_256" type="motorcycle" route="E26_to_-E8" depart="1026.0" departLane="random" />
    <vehicle id="-E23_to_-E8_257" type="truck" route="-E23_to_-E8" depart="1027.0" departLane="random" />
    <vehicle id="E26_to_-E8_258" type="car" route="E26_to_-E8" depart="1028.0" departLane="random" />
    <vehicle id="E26_to_-E8_259" type="motorcycle" route="E26_to_-E8" depart="1034.0" departLane="random" />
    <vehicle id="E26_to_-E8_260" type="truck" route="E26_to_-E8" depart="1040.0" departLane="random" />
    <vehicle id="E26_to_-E8_261" type="car" route="E26_to_-E8" depart="1044.0" departLane="random" />
    <vehicle id="-E23_to_E24_262" type="motorcycle" route="-E23_to_E24" depart="1044.0" departLane="random" />
    <vehicle id="E26_to_-E8_263" type="truck" route="E26_to_-E8" depart="1044.0" departLane="random" />
    <vehicle id="E26_to_-E8_264" type="car" route="E26_to_-E8" depart="1049.0" departLane="random" />
    <vehicle id="E8_to_E24_265" type="motorcycle" route="E8_to_E24" depart="1053.0" departLane="random" />
    <vehicle id="E8_to_E24_266" type="truck" route="E8_to_E24" depart="1053.0" departLane="random" />
    <vehicle id="E26_to_-E8_267" type="car" route="E26_to_-E8" depart="1055.0" departLane="random" />
    <vehicle id="E26_to_-E8_268" type="motorcycle" route="E26_to_-E8" depart="1055.0" departLane="random" />
    <vehicle id="E26_to_-E8_269" type="truck" route="E26_to_-E8" depart="1055.0" departLane="random" />
    <vehicle id="-E23_to_-E8_270" type="car" route="-E23_to_-E8" depart="1058.0" departLane="random" />
    <vehicle id="E26_to_-E8_271" type="motorcycle" route="E26_to_-E8" depart="1058.0" departLane="random" />
    <vehicle id="E8_to_E24_272" type="truck" route="E8_to_E24" depart="1058.0" departLane="random" />
    <vehicle id="E8_to_E24_273" type="car" route="E8_to_E24" depart="1060.0" departLane="random" />
    <vehicle id="-E23_to_-E8_274" type="motorcycle" route="-E23_to_-E8" depart="1060.0" departLane="random" />
    <vehicle id="E8_to_E24_275" type="truck" route="E8_to_E24" depart="1061.0" departLane="random" />
    <vehicle id="E26_to_-E8_276" type="car" route="E26_to_-E8" depart="1061.0" departLane="random" />
    <vehicle id="E26_to_-E8_277" type="motorcycle" route="E26_to_-E8" depart="1063.0" departLane="random" />
    <vehicle id="E8_to_E23_278" type="truck" route="E8_to_E23" depart="1066.0" departLane="random" />
    <vehicle id="E8_to_E24_279" type="car" route="E8_to_E24" depart="1069.0" departLane="random" />
    <vehicle id="E26_to_-E8_280" type="motorcycle" route="E26_to_-E8" depart="1069.0" departLane="random" />
    <vehicle id="E26_to_-E8_281" type="truck" route="E26_to_-E8" depart="1070.0" departLane="random" />
    <vehicle id="E8_to_E23_282" type="car" route="E8_to_E23" depart="1070.0" departLane="random" />
    <vehicle id="E26_to_E23_283" type="motorcycle" route="E26_to_E23" depart="1072.0" departLane="random" />
    <vehicle id="E8_to_E24_284" type="truck" route="E8_to_E24" depart="1072.0" departLane="random" />