<routes>
      <vType id="car" length="5" width="2" accel="2.6" decel="4.5" />
      <vType id="motorcycle" length="2" width="0.8" accel="3.5" decel="4.0" />
      <vType id="truck" length="12" width="2.5" accel="1.0" decel="3.0" />

    
    <route id="-E10_to_E6" edges="-E10 E6" />
    <route id="-E10_to_E12" edges="-E10 E12" />
    <route id="-E10_to_-E9" edges="-E10 -E9" />
    <route id="E15_to_-E9" edges="E15 -E9" />
    <route id="E15_to_E10" edges="E15 E10" />
    <route id="E5_to_-E9" edges="E5 -E9" />
    <route id="E5_to_E10" edges="E5 E10" />
    <route id="E5_to_E6" edges="E5 E6" />
    <route id="E9_to_E10" edges="E9 E10" />
    <route id="E9_to_E6" edges="E9 E6" />
    <route id="E9_to_E12" edges="E9 E12" />
    <vehicle id="E9_to_E6_0" type="car" route="E9_to_E6" depart="42.0" departLane="allowed" />
    <vehicle id="E5_to_E10_1" type="motorcycle" route="E5_to_E10" depart="67.0" departLane="allowed" />
    <vehicle id="E5_to_-E9_2" type="truck" route="E5_to_-E9" depart="94.0" departLane="allowed" />
    <vehicle id="E9_to_E6_3" type="car" route="E9_to_E6" depart="112.0" departLane="allowed" />
    <vehicle id="E9_to_E6_4" type="motorcycle" route="E9_to_E6" depart="123.0" departLane="allowed" />
    <vehicle id="E9_to_E6_5" type="truck" route="E9_to_E6" depart="129.0" departLane="allowed" />
    <vehicle id="E15_to_E10_6" type="car" route="E15_to_E10" depart="160.0" departLane="allowed" />
    <vehicle id="E5_to_E10_7" type="motorcycle" route="E5_to_E10" depart="193.0" departLane="allowed" />
    <vehicle id="E15_to_-E9_8" type="truck" route="E15_to_-E9" depart="195.0" departLane="allowed" />
    <vehicle id="E5_to_E10_9" type="car" route="E5_to_E10" depart="198.0" departLane="allowed" />
    <vehicle id="E9_to_E6_10" type="motorcycle" route="E9_to_E6" depart="199.0" departLane="allowed" />
    <vehicle id="E5_to_E10_11" type="truck" route="E5_to_E10" depart="208.0" departLane="allowed" />
    <vehicle id="E15_to_-E9_12" type="car" route="E15_to_-E9" depart="226.0" departLane="allowed" />
    <vehicle id="E5_to_-E9_13" type="motorcycle" route="E5_to_-E9" depart="231.0" departLane="allowed" />
    <vehicle id="-E10_to_E6_14" type="truck" route="-E10_to_E6" depart="232.0" departLane="allowed" />
    <vehicle id="-E10_to_E6_15" type="car" route="-E10_to_E6" depart="235.0" departLane="allowed" />
    <vehicle id="E5_to_E10_16" type="motorcycle" route="E5_to_E10" depart="246.0" departLane="allowed" />
    <vehicle id="E15_to_-E9_17" type="truck" route="E15_to_-E9" depart="248.0" departLane="allowed" />
    <vehicle id="E5_to_E10_18" type="car" route="E5_to_E10" depart="250.0" departLane="allowed" />
    <vehicle id="E15_to_-E9_19" type="motorcycle" route="E15_to_-E9" depart="251.0" departLane="allowed" />
    <vehicle id="E15_to_-E9_20" type="truck" route="E15_to_-E9" depart="257.0" departLane="allowed" />
    <vehicle id="E5_to_E10_21" type="car" route="E5_to_E10" depart="257.0" departLane="allowed" />
    <vehicle id="E5_to_-E9_22" type="motorcycle" route="E5_to_-E9" depart="260.0" departLane="allowed" />
    <vehicle id="E15_to_-E9_23" type="truck" route="E15_to_-E9" depart="282.0" departLane="allowed" />
    <vehicle id="E5_to_E10_24" type="car" route="E5_to_E10" depart="285.0" departLane="allowed" />
    <vehicle id="E5_to_E10_25" type="motorcycle" route="E5_to_E10" depart="290.0" departLane="allowed" />
    <vehicle id="E9_to_E6_26" type="truck" route="E9_to_E6" depart="309.0" departLane="allowed" />
    <vehicle id="E5_to_E10_27" type="car" route="E5_to_E10" depart="310.0" departLane="allowed" />
    <vehicle id="E5_to_-E9_28" type="motorcycle" route="E5_to_-E9" depart="314.0" departLane="allowed" />
    <vehicle id="E9_to_E6_29" type="truck" route="E9_to_E6" depart="315.0" departLane="allowed" />
    <vehicle id="E9_to_E6_30" type="car" route="E9_to_E6" depart="324.0" departLane="allowed" />
    <vehicle id="E15_to_-E9_31" type="motorcycle" route="E15_to_-E9" depart="330.0" departLane="allowed" />
    <vehicle id="E9_to_E10_32" type="truck" route="E9_to_E10" depart="331.0" departLane="allowed" />
    <vehicle id="E15_to_-E9_33" type="car" route="E15_to_-E9" depart="342.0" departLane="allowed" />
    <vehicle id="E5_to_E6_34" type="motorcycle" route="E5_to_E6" depart="345.0" departLane="allowed" />
    <vehicle id="E5_to_E10_35" type="truck" route="E5_to_E10" depart="357.0" departLane="allowed" />
    <vehicle id="E9_to_E6_36" type="car" route="E9_to_E6" depart="360.0" departLane="allowed" />
    <vehicle id="E5_to_E10_37" type="motorcycle" route="E5_to_E10" depart="362.0" departLane="allowed" />
    <vehicle id="E15_to_-E9_38" type="truck" route="E15_to_-E9" depart="364.0" departLane="allowed" />
    <vehicle id="E9_to_E12_39" type="car" route="E9_to_E12" depart="377.0" departLane="allowed" />
    <vehicle id="-E10_to_-E9_40" type="motorcycle" route="-E10_to_-E9" depart="385.0" departLane="allowed" />
    <vehicle id="E15_to_-E9_41" type="truck" route="E15_to_-E9" depart="391.0" departLane="allowed" />
    <vehicle id="E15_to_E10_42" type="car" route="E15_to_E10" depart="394.0" departLane="allowed" />
    <vehicle id="E9_to_E6_43" type="motorcycle" route="E9_to_E6" depart="402.0" departLane="allowed" />
    <vehicle id="E9_to_E6_44" type="truck" route="E9_to_E6" depart="405.0" departLane="allowed" />
    <vehicle id="E15_to_-E9_45" type="car" route="E15_to_-E9" depart="422.0" departLane="allowed" />
    <vehicle id="E5_to_E10_46" type="motorcycle" route="E5_to_E10" depart="425.0" departLane="allowed" />
    <vehicle id="E5_to_E10_47" type="truck" route="E5_to_E10" depart="430.0" departLane="allowed" />
    <vehicle id="E9_to_E6_48" type="car" route="E9_to_E6" depart="435.0" departLane="allowed" />
    <vehicle id="E15_to_-E9_49" type="motorcycle" route="E15_to_-E9" depart="436.0" departLane="allowed" />
    <vehicle id="-E10_to_-E9_50" type="truck" route="-E10_to_-E9" depart="440.0" departLane="allowed" />
    <vehicle id="-E10_to_E6_51" type="car" route="-E10_to_E6" depart="441.0" departLane="allowed" />
    <vehicle id="-E10_to_E6_52" type="motorcycle" route="-E10_to_E6" depart="442.0" departLane="allowed" />
    <vehicle id="E9_to_E6_53" type="truck" route="E9_to_E6" depart="445.0" departLane="allowed" />
    <vehicle id="E9_to_E6_54" type="car" route="E9_to_E6" depart="448.0" departLane="allowed" />
    <vehicle id="E5_to_E6_55" type="motorcycle" route="E5_to_E6" depart="449.0" departLane="allowed" />
    <vehicle id="E5_to_E10_56" type="truck" route="E5_to_E10" depart="452.0" departLane="allowed" />
    <vehicle id="E9_to_E12_57" type="car" route="E9_to_E12" depart="458.0" departLane="allowed" />
    <vehicle id="-E10_to_E6_58" type="motorcycle" route="-E10_to_E6" depart="458.0" departLane="allowed" />
    <vehicle id="E15_to_-E9_59" type="truck" route="E15_to_-E9" depart="460.0" departLane="allowed" />
    <vehicle id="E5_to_E10_60" type="car" route="E5_to_E10" depart="461.0" departLane="allowed" />
    <vehicle id="-E10_to_-E9_61" type="motorcycle" route="-E10_to_-E9" depart="463.0" departLane="allowed" />
    <vehicle id="-E10_to_E12_62" type="truck" route="-E10_to_E12" depart="463.0" departLane="allowed" />
    <vehicle id="E9_to_E10_63" type="car" route="E9_to_E10" depart="468.0" departLane="allowed" />
    <vehicle id="E15_to_-E9_64" type="motorcycle" route="E15_to_-E9" depart="469.0" departLane="allowed" />
    <vehicle id="E9_to_E6_65" type="truck" route="E9_to_E6" depart="471.0" departLane="allowed" />
    <vehicle id="E9_to_E6_66" type="car" route="E9_to_E6" depart="475.0" departLane="allowed" />
    <vehicle id="E5_to_E10_67" type="motorcycle" route="E5_to_E10" depart="478.0" departLane="allowed" />
    <vehicle id="E9_to_E6_68" type="truck" route="E9_to_E6" depart="481.0" departLane="allowed" />
    <vehicle id="E5_to_E10_69" type="car" route="E5_to_E10" depart="482.0" departLane="allowed" />
    <vehicle id="E9_to_E6_70" type="motorcycle" route="E9_to_E6" depart="482.0" departLane="allowed" />
    <vehicle id="-E10_to_E12_71" type="truck" route="-E10_to_E12" depart="485.0" departLane="allowed" />
    <vehicle id="E5_to_E10_72" type="car" route="E5_to_E10" depart="488.0" departLane="allowed" />
    <vehicle id="-E10_to_E12_73" type="motorcycle" route="-E10_to_E12" depart="489.0" departLane="allowed" />
    <vehicle id="E5_to_E10_74" type="truck" route="E5_to_E10" depart="504.0" departLane="allowed" />
    <vehicle id="E5_to_E10_75" type="car" route="E5_to_E10" depart="508.0" departLane="allowed" />
    <vehicle id="E5_to_-E9_76" type="motorcycle" route="E5_to_-E9" depart="509.0" departLane="allowed" />
    <vehicle id="E5_to_E10_77" type="truck" route="E5_to_E10" depart="518.0" departLane="allowed" />
    <vehicle id="E9_to_E6_78" type="car" route="E9_to_E6" depart="522.0" departLane="allowed" />
    <vehicle id="-E10_to_E6_79" type="motorcycle" route="-E10_to_E6" depart="523.0" departLane="allowed" />
    <vehicle id="E5_to_E6_80" type="truck" route="E5_to_E6" depart="524.0" departLane="allowed" />
    <vehicle id="E15_to_-E9_81" type="car" route="E15_to_-E9" depart="531.0" departLane="allowed" />
    <vehicle id="-E10_to_E12_82" type="motorcycle" route="-E10_to_E12" depart="538.0" departLane="allowed" />
    <vehicle id="E15_to_-E9_83" type="truck" route="E15_to_-E9" depart="543.0" departLane="allowed" />
    <vehicle id="E9_to_E6_84" type="car" route="E9_to_E6" depart="551.0" departLane="allowed" />
    <vehicle id="E9_to_E6_85" type="motorcycle" route="E9_to_E6" depart="552.0" departLane="allowed" />
    <vehicle id="E5_to_E10_86" type="truck" route="E5_to_E10" depart="556.0" departLane="allowed" />
    <vehicle id="E15_to_-E9_87" type="car" route="E15_to_-E9" depart="565.0" departLane="allowed" />
    <vehicle id="E9_to_E6_88" type="motorcycle" route="E9_to_E6" depart="572.0" departLane="allowed" />
    <vehicle id="E5_to_-E9_89" type="truck" route="E5_to_-E9" depart="573.0" departLane="allowed" />
    <vehicle id="E9_to_E6_90" type="car" route="E9_to_E6" depart="574.0" departLane="allowed" />
    <vehicle id="E15_to_-E9_91" type="motorcycle" route="E15_to_-E9" depart="575.0" departLane="allowed" />
    <vehicle id="E9_to_E12_92" type="truck" route="E9_to_E12" depart="576.0" departLane="allowed" />
    <vehicle id="-E10_to_E12_93" type="car" route="-E10_to_E12" depart="576.0" departLane="allowed" />
    <vehicle id="-E10_to_E12_94" type="motorcycle" route="-E10_to_E12" depart="577.0" departLane="allowed" />
    <vehicle id="E5_to_E10_95" type="truck" route="E5_to_E10" depart="578.0" departLane="allowed" />
    <vehicle id="E5_to_E6_96" type="car" route="E5_to_E6" depart="583.0" departLane="allowed" />
    <vehicle id="E9_to_E6_97" type="motorcycle" route="E9_to_E6" depart="583.0" departLane="allowed" />
    <vehicle id="E5_to_E10_98" type="truck" route="E5_to_E10" depart="584.0" departLane="allowed" />
    <vehicle id="E5_to_E10_99" type="car" route="E5_to_E10" depart="585.0" departLane="allowed" />
    <vehicle id="E9_to_E6_100" type="motorcycle" route="E9_to_E6" depart="585.0" departLane="allowed" />
    <vehicle id="E5_to_E10_101" type="truck" route="E5_to_E10" depart="591.0" departLane="allowed" />
    <vehicle id="E5_to_E10_102" type="car" route="E5_to_E10" depart="592.0" departLane="allowed" />
    <vehicle id="E9_to_E12_103" type="motorcycle" route="E9_to_E12" depart="594.0" departLane="allowed" />
    <vehicle id="E9_to_E6_104" type="truck" route="E9_to_E6" depart="598.0" departLane="allowed" />
    <vehicle id="E15_to_-E9_105" type="car" route="E15_to_-E9" depart="602.0" departLane="allowed" />
    <vehicle id="-E10_to_E12_106" type="motorcycle" route="-E10_to_E12" depart="606.0" departLane="allowed" />
    <vehicle id="-E10_to_-E9_107" type="truck" route="-E10_to_-E9" depart="606.0" departLane="allowed" />
    <vehicle id="E5_to_E6_108" type="car" route="E5_to_E6" depart="607.0" departLane="allowed" />
    <vehicle id="-E10_to_E6_109" type="motorcycle" route="-E10_to_E6" depart="614.0" departLane="allowed" />
    <vehicle id="E15_to_-E9_110" type="truck" route="E15_to_-E9" depart="616.0" departLane="allowed" />
    <vehicle id="E9_to_E6_111" type="car" route="E9_to_E6" depart="616.0" departLane="allowed" />
    <vehicle id="-E10_to_E12_112" type="motorcycle" route="-E10_to_E12" depart="619.0" departLane="allowed" />
    <vehicle id="E5_to_-E9_113" type="truck" route="E5_to_-E9" depart="622.0" departLane="allowed" />
    <vehicle id="E15_to_-E9_114" type="car" route="E15_to_-E9" depart="631.0" departLane="allowed" />
    <vehicle id="E15_to_-E9_115" type="motorcycle" route="E15_to_-E9" depart="631.0" departLane="allowed" />
    <vehicle id="E9_to_E6_116" type="truck" route="E9_to_E6" depart="631.0" departLane="allowed" />
    <vehicle id="E15_to_-E9_117" type="car" route="E15_to_-E9" depart="632.0" departLane="allowed" />
    <vehicle id="E9_to_E6_118" type="motorcycle" route="E9_to_E6" depart="632.0" departLane="allowed" />
    <vehicle id="E5_to_E10_119" type="truck" route="E5_to_E10" depart="636.0" departLane="allowed" />
    <vehicle id="E5_to_E6_120" type="car" route="E5_to_E6" depart="636.0" departLane="allowed" />
    <vehicle id="E5_to_E10_121" type="motorcycle" route="E5_to_E10" depart="636.0" departLane="allowed" />
    <vehicle id="E9_to_E6_122" type="truck" route="E9_to_E6" depart="636.0" departLane="allowed" />
    <vehicle id="E9_to_E6_123" type="car" route="E9_to_E6" depart="636.0" departLane="allowed" />
    <vehicle id="E5_to_E10_124" type="motorcycle" route="E5_to_E10" depart="639.0" departLane="allowed" />
    <vehicle id="E9_to_E6_125" type="truck" route="E9_to_E6" depart="640.0" departLane="allowed" />
    <vehicle id="E5_to_E6_126" type="car" route="E5_to_E6" depart="644.0" departLane="allowed" />
    <vehicle id="E15_to_-E9_127" type="motorcycle" route="E15_to_-E9" depart="644.0" departLane="allowed" />
    <vehicle id="E9_to_E6_128" type="truck" route="E9_to_E6" depart="654.0" departLane="allowed" />
    <vehicle id="E15_to_-E9_129" type="car" route="E15_to_-E9" depart="669.0" departLane="allowed" />
    <vehicle id="-E10_to_E12_130" type="motorcycle" route="-E10_to_E12" depart="669.0" departLane="allowed" />
    <vehicle id="E9_to_E6_131" type="truck" route="E9_to_E6" depart="675.0" departLane="allowed" />
    <vehicle id="E15_to_E10_132" type="car" route="E15_to_E10" depart="675.0" departLane="allowed" />
    <vehicle id="E9_to_E6_133" type="motorcycle" route="E9_to_E6" depart="676.0" departLane="allowed" />
    <vehicle id="E9_to_E12_134" type="truck" route="E9_to_E12" depart="677.0" departLane="allowed" />
    <vehicle id="E9_to_E6_135" type="car" route="E9_to_E6" depart="677.0" departLane="allowed" />
    <vehicle id="E15_to_E10_136" type="motorcycle" route="E15_to_E10" depart="679.0" departLane="allowed" />
    <vehicle id="E5_to_-E9_137" type="truck" route="E5_to_-E9" depart="681.0" departLane="allowed" />
    <vehicle id="E15_to_-E9_138" type="car" route="E15_to_-E9" depart="681.0" departLane="allowed" />
    <vehicle id="E5_to_E10_139" type="motorcycle" route="E5_to_E10" depart="687.0" departLane="allowed" />
    <vehicle id="E5_to_E10_140" type="truck" route="E5_to_E10" depart="691.0" departLane="allowed" />
    <vehicle id="E15_to_-E9_141" type="car" route="E15_to_-E9" depart="694.0" departLane="allowed" />
    <vehicle id="E15_to_-E9_142" type="motorcycle" route="E15_to_-E9" depart="697.0" departLane="allowed" />
    <vehicle id="E15_to_-E9_143" type="truck" route="E15_to_-E9" depart="700.0" departLane="allowed" />
    <vehicle id="E9_to_E6_144" type="car" route="E9_to_E6" depart="700.0" departLane="allowed" />
    <vehicle id="E15_to_-E9_145" type="motorcycle" route="E15_to_-E9" depart="703.0" departLane="allowed" />
    <vehicle id="E15_to_-E9_146" type="truck" route="E15_to_-E9" depart="708.0" departLane="allowed" />
    <vehicle id="E5_to_E10_147" type="car" route="E5_to_E10" depart="712.0" departLane="allowed" />
    <vehicle id="E5_to_-E9_148" type="motorcycle" route="E5_to_-E9" depart="718.0" departLane="allowed" />
    <vehicle id="E9_to_E6_149" type="truck" route="E9_to_E6" depart="720.0" departLane="allowed" />
    <vehicle id="E9_to_E6_150" type="car" route="E9_to_E6" depart="720.0" departLane="allowed" />
    <vehicle id="-E10_to_E12_151" type="motorcycle" route="-E10_to_E12" depart="720.0" departLane="allowed" />
    <vehicle id="E5_to_E10_152" type="truck" route="E5_to_E10" depart="721.0" departLane="allowed" />
    <vehicle id="-E10_to_E6_153" type="car" route="-E10_to_E6" depart="724.0" departLane="allowed" />
    <vehicle id="E15_to_-E9_154" type="motorcycle" route="E15_to_-E9" depart="728.0" departLane="allowed" />
    <vehicle id="E5_to_E10_155" type="truck" route="E5_to_E10" depart="732.0" departLane="allowed" />
    <vehicle id="-E10_to_E6_156" type="car" route="-E10_to_E6" depart="734.0" departLane="allowed" />
    <vehicle id="E15_to_-E9_157" type="motorcycle" route="E15_to_-E9" depart="742.0" departLane="allowed" />
    <vehicle id="E9_to_E6_158" type="truck" route="E9_to_E6" depart="749.0" departLane="allowed" />
    <vehicle id="E5_to_E6_159" type="car" route="E5_to_E6" depart="749.0" departLane="allowed" />
    <vehicle id="E9_to_E6_160" type="motorcycle" route="E9_to_E6" depart="750.0" departLane="allowed" />
    <vehicle id="E9_to_E6_161" type="truck" route="E9_to_E6" depart="751.0" departLane="allowed" />
    <vehicle id="-E10_to_-E9_162" type="car" route="-E10_to_-E9" depart="752.0" departLane="allowed" />
    <vehicle id="E9_to_E10_163" type="motorcycle" route="E9_to_E10" depart="753.0" departLane="allowed" />
    <vehicle id="E9_to_E6_164" type="truck" route="E9_to_E6" depart="753.0" departLane="allowed" />
    <vehicle id="E15_to_E10_165" type="car" route="E15_to_E10" depart="755.0" departLane="allowed" />
    <vehicle id="E9_to_E6_166" type="motorcycle" route="E9_to_E6" depart="757.0" departLane="allowed" />
    <vehicle id="E9_to_E6_167" type="truck" route="E9_to_E6" depart="758.0" departLane="allowed" />
    <vehicle id="E15_to_-E9_168" type="car" route="E15_to_-E9" depart="758.0" departLane="allowed" />
    <vehicle id="E15_to_-E9_169" type="motorcycle" route="E15_to_-E9" depart="759.0" departLane="allowed" />
    <vehicle id="E5_to_E10_170" type="truck" route="E5_to_E10" depart="764.0" departLane="allowed" />
    <vehicle id="E9_to_E6_171" type="car" route="E9_to_E6" depart="767.0" departLane="allowed" />
    <vehicle id="E5_to_E10_172" type="motorcycle" route="E5_to_E10" depart="775.0" departLane="allowed" />
    <vehicle id="E15_to_-E9_173" type="truck" route="E15_to_-E9" depart="781.0" departLane="allowed" />
    <vehicle id="E9_to_E6_174" type="car" route="E9_to_E6" depart="782.0" departLane="allowed" />
    <vehicle id="E15_to_-E9_175" type="motorcycle" route="E15_to_-E9" depart="784.0" departLane="allowed" />
    <vehicle id="E5_to_-E9_176" type="truck" route="E5_to_-E9" depart="789.0" departLane="allowed" />
    <vehicle id="E5_to_-E9_177" type="car" route="E5_to_-E9" depart="789.0" departLane="allowed" />
    <vehicle id="-E10_to_-E9_178" type="motorcycle" route="-E10_to_-E9" depart="790.0" departLane="allowed" />
    <vehicle id="E9_to_E12_179" type="truck" route="E9_to_E12" depart="793.0" departLane="allowed" />
    <vehicle id="E15_to_E10_180" type="car" route="E15_to_E10" depart="794.0" departLane="allowed" />
    <vehicle id="E15_to_-E9_181" type="motorcycle" route="E15_to_-E9" depart="798.0" departLane="allowed" />
    <vehicle id="E9_to_E6_182" type="truck" route="E9_to_E6" depart="801.0" departLane="allowed" />
    <vehicle id="E9_to_E6_183" type="car" route="E9_to_E6" depart="801.0" departLane="allowed" />
    <vehicle id="E5_to_E10_184" type="motorcycle" route="E5_to_E10" depart="805.0" departLane="allowed" />
    <vehicle id="E9_to_E6_185" type="truck" route="E9_to_E6" depart="809.0" departLane="allowed" />
    <vehicle id="E15_to_-E9_186" type="car" route="E15_to_-E9" depart="810.0" departLane="allowed" />
    <vehicle id="E15_to_E10_187" type="motorcycle" route="E15_to_E10" depart="810.0" departLane="allowed" />
    <vehicle id="E9_to_E6_188" type="truck" route="E9_to_E6" depart="815.0" departLane="allowed" />
    <vehicle id="E15_to_-E9_189" type="car" route="E15_to_-E9" depart="815.0" departLane="allowed" />
    <vehicle id="E9_to_E6_190" type="motorcycle" route="E9_to_E6" depart="816.0" departLane="allowed" />
    <vehicle id="-E10_to_E12_191" type="truck" route="-E10_to_E12" depart="817.0" departLane="allowed" />
    <vehicle id="E5_to_E6_192" type="car" route="E5_to_E6" depart="819.0" departLane="allowed" />
    <vehicle id="E5_to_E10_193" type="motorcycle" route="E5_to_E10" depart="826.0" departLane="allowed" />
    <vehicle id="E5_to_E6_194" type="truck" route="E5_to_E6" depart="828.0" departLane="allowed" />
    <vehicle id="E9_to_E12_195" type="car" route="E9_to_E12" depart="842.0" departLane="allowed" />
    <vehicle id="E5_to_E10_196" type="motorcycle" route="E5_to_E10" depart="843.0" departLane="allowed" />
    <vehicle id="E15_to_-E9_197" type="truck" route="E15_to_-E9" depart="844.0" departLane="allowed" />
    <vehicle id="E5_to_E10_198" type="car" route="E5_to_E10" depart="849.0" departLane="allowed" />
    <vehicle id="E15_to_-E9_199" type="motorcycle" route="E15_to_-E9" depart="850.0" departLane="allowed" />
    <vehicle id="E5_to_E10_200" type="truck" route="E5_to_E10" depart="862.0" departLane="allowed" />
    <vehicle id="E5_to_E10_201" type="car" route="E5_to_E10" depart="868.0" departLane="allowed" />
    <vehicle id="E9_to_E6_202" type="motorcycle" route="E9_to_E6" depart="870.0" departLane="allowed" />
    <vehicle id="E5_to_E10_203" type="truck" route="E5_to_E10" depart="871.0" departLane="allowed" />
    <vehicle id="-E10_to_E12_204" type="car" route="-E10_to_E12" depart="873.0" departLane="allowed" />
    <vehicle id="E15_to_-E9_205" type="motorcycle" route="E15_to_-E9" depart="874.0" departLane="allowed" />
    <vehicle id="E15_to_-E9_206" type="truck" route="E15_to_-E9" depart="875.0" departLane="allowed" />
    <vehicle id="E15_to_-E9_207" type="car" route="E15_to_-E9" depart="877.0" departLane="allowed" />
    <vehicle id="E5_to_E10_208" type="motorcycle" route="E5_to_E10" depart="880.0" departLane="allowed" />
    <vehicle id="E9_to_E6_209" type="truck" route="E9_to_E6" depart="882.0" departLane="allowed" />
    <vehicle id="E9_to_E6_210" type="car" route="E9_to_E6" depart="883.0" departLane="allowed" />
    <vehicle id="E9_to_E6_211" type="motorcycle" route="E9_to_E6" depart="887.0" departLane="allowed" />
    <vehicle id="E15_to_-E9_212" type="truck" route="E15_to_-E9" depart="887.0" departLane="allowed" />
    <vehicle id="E15_to_-E9_213" type="car" route="E15_to_-E9" depart="889.0" departLane="allowed" />
    <vehicle id="E15_to_-E9_214" type="motorcycle" route="E15_to_-E9" depart="890.0" departLane="allowed" />
    <vehicle id="E5_to_E10_215" type="truck" route="E5_to_E10" depart="890.0" departLane="allowed" />
    <vehicle id="-E10_to_-E9_216" type="car" route="-E10_to_-E9" depart="892.0" departLane="allowed" />
    <vehicle id="E9_to_E10_217" type="motorcycle" route="E9_to_E10" depart="897.0" departLane="allowed" />
    <vehicle id="E9_to_E6_218" type="truck" route="E9_to_E6" depart="900.0" departLane="allowed" />
    <vehicle id="E9_to_E10_219" type="car" route="E9_to_E10" depart="900.0" departLane="allowed" />
    <vehicle id="E9_to_E12_220" type="motorcycle" route="E9_to_E12" depart="904.0" departLane="allowed" />
    <vehicle id="E9_to_E10_221" type="truck" route="E9_to_E10" depart="904.0" departLane="allowed" />
    <vehicle id="E5_to_E10_222" type="car" route="E5_to_E10" depart="906.0" departLane="allowed" />
    <vehicle id="-E10_to_-E9_223" type="motorcycle" route="-E10_to_-E9" depart="907.0" departLane="allowed" />
    <vehicle id="E5_to_-E9_224" type="truck" route="E5_to_-E9" depart="914.0" departLane="allowed" />
    <vehicle id="-E10_to_E12_225" type="car" route="-E10_to_E12" depart="914.0" departLane="allowed" />
    <vehicle id="E5_to_-E9_226" type="motorcycle" route="E5_to_-E9" depart="915.0" departLane="allowed" />
    <vehicle id="E15_to_-E9_227" type="truck" route="E15_to_-E9" depart="917.0" departLane="allowed" />
    <vehicle id="-E10_to_-E9_228" type="car" route="-E10_to_-E9" depart="919.0" departLane="allowed" />
    <vehicle id="E5_to_E6_229" type="motorcycle" route="E5_to_E6" depart="924.0" departLane="allowed" />
    <vehicle id="E5_to_E10_230" type="truck" route="E5_to_E10" depart="925.0" departLane="allowed" />
    <vehicle id="E5_to_E10_231" type="car" route="E5_to_E10" depart="926.0" departLane="allowed" />
    <vehicle id="E15_to_-E9_232" type="motorcycle" route="E15_to_-E9" depart="926.0" departLane="allowed" />
    <vehicle id="E9_to_E6_233" type="truck" route="E9_to_E6" depart="928.0" departLane="allowed" />
    <vehicle id="E15_to_-E9_234" type="car" route="E15_to_-E9" depart="938.0" departLane="allowed" />
    <vehicle id="E5_to_E10_235" type="motorcycle" route="E5_to_E10" depart="938.0" departLane="allowed" />
    <vehicle id="E9_to_E12_236" type="truck" route="E9_to_E12" depart="938.0" departLane="allowed" />
    <vehicle id="-E10_to_E6_237" type="car" route="-E10_to_E6" depart="939.0" departLane="allowed" />
    <vehicle id="E5_to_E10_238" type="motorcycle" route="E5_to_E10" depart="943.0" departLane="allowed" />
    <vehicle id="E5_to_E10_239" type="truck" route="E5_to_E10" depart="945.0" departLane="allowed" />
    <vehicle id="E9_to_E6_240" type="car" route="E9_to_E6" depart="946.0" departLane="allowed" />
    <vehicle id="E9_to_E10_241" type="motorcycle" route="E9_to_E10" depart="946.0" departLane="allowed" />
    <vehicle id="E5_to_E10_242" type="truck" route="E5_to_E10" depart="947.0" departLane="allowed" />
    <vehicle id="E15_to_-E9_243" type="car" route="E15_to_-E9" depart="948.0" departLane="allowed" />
    <vehicle id="E5_to_-E9_244" type="motorcycle" route="E5_to_-E9" depart="953.0" departLane="allowed" />
    <vehicle id="E5_to_E6_245" type="truck" route="E5_to_E6" depart="954.0" departLane="allowed" />
    <vehicle id="E5_to_E10_246" type="car" route="E5_to_E10" depart="955.0" departLane="allowed" />
    <vehicle id="E9_to_E10_247" type="motorcycle" route="E9_to_E10" depart="957.0" departLane="allowed" />
    <vehicle id="E9_to_E6_248" type="truck" route="E9_to_E6" depart="958.0" departLane="allowed" />
    <vehicle id="E9_to_E6_249" type="car" route="E9_to_E6" depart="960.0" departLane="allowed" />
    <vehicle id="E5_to_E10_250" type="motorcycle" route="E5_to_E10" depart="960.0" departLane="allowed" />
    <vehicle id="E15_to_-E9_251" type="truck" route="E15_to_-E9" depart="962.0" departLane="allowed" />
    <vehicle id="E5_to_E6_252" type="car" route="E5_to_E6" depart="963.0" departLane="allowed" />
    <vehicle id="E5_to_E10_253" type="motorcycle" route="E5_to_E10" depart="964.0" departLane="allowed" />
    <vehicle id="E9_to_E6_254" type="truck" route="E9_to_E6" depart="966.0" departLane="allowed" />
    <vehicle id="E15_to_-E9_255" type="car" route="E15_to_-E9" depart="970.0" departLane="allowed" />
    <vehicle id="E9_to_E6_256" type="motorcycle" route="E9_to_E6" depart="973.0" departLane="allowed" />
    <vehicle id="E5_to_E10_257" type="truck" route="E5_to_E10" depart="973.0" departLane="allowed" />
    <vehicle id="E5_to_E10_258" type="car" route="E5_to_E10" depart="974.0" departLane="allowed" />
    <vehicle id="E9_to_E6_259" type="motorcycle" route="E9_to_E6" depart="974.0" departLane="allowed" />
    <vehicle id="E15_to_-E9_260" type="truck" route="E15_to_-E9" depart="975.0" departLane="allowed" />
    <vehicle id="E5_to_E10_261" type="car" route="E5_to_E10" depart="981.0" departLane="allowed" />
    <vehicle id="E9_to_E6_262" type="motorcycle" route="E9_to_E6" depart="985.0" departLane="allowed" />
    <vehicle id="E9_to_E6_263" type="truck" route="E9_to_E6" depart="986.0" departLane="allowed" />
    <vehicle id="E15_to_-E9_264" type="car" route="E15_to_-E9" depart="990.0" departLane="allowed" />
    <vehicle id="E9_to_E10_265" type="motorcycle" route="E9_to_E10" depart="992.0" departLane="allowed" />
    <vehicle id="E5_to_-E9_266" type="truck" route="E5_to_-E9" depart="995.0" departLane="allowed" />
    <vehicle id="-E10_to_E6_267" type="car" route="-E10_to_E6" depart="998.0" departLane="allowed" />
    <vehicle id="E9_to_E6_268" type="motorcycle" route="E9_to_E6" depart="999.0" departLane="allowed" />
    <vehicle id="E5_to_E10_269" type="truck" route="E5_to_E10" depart="1000.0" departLane="allowed" />
    <vehicle id="E15_to_-E9_270" type="car" route="E15_to_-E9" depart="1004.0" departLane="allowed" />
    <vehicle id="E5_to_E10_271" type="motorcycle" route="E5_to_E10" depart="1010.0" departLane="allowed" />
    <vehicle id="-E10_to_E12_272" type="truck" route="-E10_to_E12" depart="1011.0" departLane="allowed" />
    <vehicle id="E15_to_E10_273" type="car" route="E15_to_E10" depart="1013.0" departLane="allowed" />
    <vehicle id="E5_to_E10_274" type="motorcycle" route="E5_to_E10" depart="1013.0" departLane="allowed" />
    <vehicle id="-E10_to_E12_275" type="truck" route="-E10_to_E12" depart="1015.0" departLane="allowed" />
    <vehicle id="E15_to_-E9_276" type="car" route="E15_to_-E9" depart="1016.0" departLane="allowed" />
    <vehicle id="E9_to_E6_277" type="motorcycle" route="E9_to_E6" depart="1018.0" departLane="allowed" />
    <vehicle id="E5_to_E6_278" type="truck" route="E5_to_E6" depart="1020.0" departLane="allowed" />
    <vehicle id="E15_to_E10_279" type="car" route="E15_to_E10" depart="1026.0" departLane="allowed" />
    <vehicle id="E5_to_E10_280" type="motorcycle" route="E5_to_E10" depart="1026.0" departLane="allowed" />
    <vehicle id="-E10_to_E12_281" type="truck" route="-E10_to_E12" depart="1026.0" departLane="allowed" />
    <vehicle id="E5_to_E6_282" type="car" route="E5_to_E6" depart="1030.0" departLane="allowed" />
    <vehicle id="E5_to_-E9_283" type="motorcycle" route="E5_to_-E9" depart="1035.0" departLane="allowed" />