<routes>
    <vType id="car" length="5" width="2" accel="2.6" decel="4.5" />
    <vType id="motorcycle" length="2" width="0.8" accel="3.5" decel="4.0" />
    <vType id="truck" length="12" width="2.5" accel="1.0" decel="3.0" />

    
    <route id="-E2_to_-E0" edges="-E2 -E0" />
    <route id="-E2_to_E2" edges="-E2 E2" />
    <route id="E0_to_E2" edges="E0 E2" />
    <route id="E1_to_E2" edges="E1 E2" />
    <route id="E1_to_-E0" edges="E1 -E0" />
 <vehicles id="E0_to_E2_0" type="car" route="E0_to_E2" depart="28.0" departLane="random" />
    <vehicles id="-E2_to_E2_1" type="motorcycle" route="-E2_to_E2" depart="45.0" departLane="random" />
    <vehicle id="E1_to_E2_2" type="truck" route="E1_to_E2" depart="62.0" departLane="random" />
    <vehicles id="E0_to_E2_3" type="car" route="E0_to_E2" depart="75.0" departLane="random" />
    <vehicles id="E0_to_E2_4" type="motorcycle" route="E0_to_E2" depart="82.0" departLane="random" />
    <vehicles id="E0_to_E2_5" type="truck" route="E0_to_E2" depart="86.0" departLane="random" />
    <vehicle id="E1_to_-E0_6" type="car" route="E1_to_-E0" depart="107.0" departLane="random" />
    <vehicles id="-E2_to_E2_7" type="motorcycle" route="-E2_to_E2" depart="129.0" departLane="random" />
    <vehicles id="-E2_to_-E0_8" type="truck" route="-E2_to_-E0" depart="130.0" departLane="random" />
    <vehicles id="-E2_to_E2_9" type="car" route="-E2_to_E2" depart="132.0" departLane="random" />
    <vehicles id="E0_to_E2_10" type="motorcycle" route="E0_to_E2" depart="133.0" departLane="random" />
    <vehicles id="-E2_to_E2_11" type="truck" route="-E2_to_E2" depart="139.0" departLane="random" />
    <vehicles id="-E2_to_-E0_12" type="car" route="-E2_to_-E0" depart="150.0" departLane="random" />
    <vehicle id="E1_to_E2_13" type="motorcycle" route="E1_to_E2" depart="154.0" departLane="random" />
    <vehicle id="E1_to_E2_14" type="truck" route="E1_to_E2" depart="154.0" departLane="random" />
    <vehicle id="E1_to_E2_15" type="car" route="E1_to_E2" depart="157.0" departLane="random" />
    <vehicles id="-E2_to_E2_16" type="motorcycle" route="-E2_to_E2" depart="164.0" departLane="random" />
    <vehicles id="-E2_to_-E0_17" type="truck" route="-E2_to_-E0" depart="165.0" departLane="random" />
    <vehicles id="-E2_to_E2_18" type="car" route="-E2_to_E2" depart="167.0" departLane="random" />
    <vehicles id="-E2_to_-E0_19" type="motorcycle" route="-E2_to_-E0" depart="167.0" departLane="random" />
    <vehicle id="E1_to_-E0_20" type="truck" route="E1_to_-E0" depart="171.0" departLane="random" />
    <vehicle id="E1_to_E2_21" type="car" route="E1_to_E2" depart="172.0" departLane="random" />
    <vehicles id="E0_to_E2_22" type="motorcycle" route="E0_to_E2" depart="173.0" departLane="random" />
    <vehicles id="-E2_to_-E0_23" type="truck" route="-E2_to_-E0" depart="188.0" departLane="random" />
    <vehicle id="E1_to_E2_24" type="car" route="E1_to_E2" depart="190.0" departLane="random" />
    <vehicles id="-E2_to_E2_25" type="motorcycle" route="-E2_to_E2" depart="193.0" departLane="random" />
    <vehicle id="E1_to_-E0_26" type="truck" route="E1_to_-E0" depart="206.0" departLane="random" />
    <vehicles id="E0_to_E2_27" type="car" route="E0_to_E2" depart="207.0" departLane="random" />
    <vehicles id="-E2_to_E2_28" type="motorcycle" route="-E2_to_E2" depart="209.0" departLane="random" />
    <vehicle id="E1_to_E2_29" type="truck" route="E1_to_E2" depart="210.0" departLane="random" />
    <vehicles id="E0_to_E2_30" type="car" route="E0_to_E2" depart="216.0" departLane="random" />
    <vehicles id="E0_to_E2_31" type="motorcycle" route="E0_to_E2" depart="220.0" departLane="random" />
    <vehicles id="-E2_to_-E0_32" type="truck" route="-E2_to_-E0" depart="221.0" departLane="random" />
    <vehicle id="E1_to_E2_33" type="car" route="E1_to_E2" depart="228.0" departLane="random" />
    <vehicles id="-E2_to_-E0_34" type="motorcycle" route="-E2_to_-E0" depart="230.0" departLane="random" />
    <vehicle id="E1_to_-E0_35" type="truck" route="E1_to_-E0" depart="238.0" departLane="random" />
    <vehicles id="-E2_to_E2_36" type="car" route="-E2_to_E2" depart="240.0" departLane="random" />
    <vehicles id="E0_to_E2_37" type="motorcycle" route="E0_to_E2" depart="241.0" departLane="random" />
    <vehicles id="-E2_to_E2_38" type="truck" route="-E2_to_E2" depart="242.0" departLane="random" />
    <vehicles id="-E2_to_-E0_39" type="car" route="-E2_to_-E0" depart="251.0" departLane="random" />
    <vehicle id="E1_to_-E0_40" type="motorcycle" route="E1_to_-E0" depart="256.0" departLane="random" />
    <vehicle id="E1_to_E2_41" type="truck" route="E1_to_E2" depart="260.0" departLane="random" />
    <vehicles id="-E2_to_-E0_42" type="car" route="-E2_to_-E0" depart="263.0" departLane="random" />
    <vehicle id="E1_to_-E0_43" type="motorcycle" route="E1_to_-E0" depart="268.0" departLane="random" />
    <vehicles id="E0_to_E2_44" type="truck" route="E0_to_E2" depart="270.0" departLane="random" />
    <vehicle id="E1_to_-E0_45" type="car" route="E1_to_-E0" depart="281.0" departLane="random" />
    <vehicles id="-E2_to_E2_46" type="motorcycle" route="-E2_to_E2" depart="284.0" departLane="random" />
    <vehicle id="E1_to_-E0_47" type="truck" route="E1_to_-E0" depart="286.0" departLane="random" />
    <vehicle id="E1_to_E2_48" type="car" route="E1_to_E2" depart="290.0" departLane="random" />
    <vehicles id="E0_to_E2_49" type="motorcycle" route="E0_to_E2" depart="290.0" departLane="random" />
    <vehicles id="-E2_to_-E0_50" type="truck" route="-E2_to_-E0" depart="293.0" departLane="random" />
    <vehicle id="E1_to_E2_51" type="car" route="E1_to_E2" depart="294.0" departLane="random" />
    <vehicle id="E1_to_E2_52" type="motorcycle" route="E1_to_E2" depart="295.0" departLane="random" />
    <vehicle id="E1_to_E2_53" type="truck" route="E1_to_E2" depart="297.0" departLane="random" />
    <vehicles id="E0_to_E2_54" type="car" route="E0_to_E2" depart="298.0" departLane="random" />
    <vehicles id="E0_to_E2_55" type="motorcycle" route="E0_to_E2" depart="299.0" departLane="random" />
    <vehicle id="E1_to_-E0_56" type="truck" route="E1_to_-E0" depart="301.0" departLane="random" />
    <vehicles id="-E2_to_E2_57" type="car" route="-E2_to_E2" depart="305.0" departLane="random" />
    <vehicle id="E1_to_-E0_58" type="motorcycle" route="E1_to_-E0" depart="305.0" departLane="random" />
    <vehicle id="E1_to_E2_59" type="truck" route="E1_to_E2" depart="307.0" departLane="random" />
    <vehicle id="E1_to_E2_60" type="car" route="E1_to_E2" depart="307.0" departLane="random" />
    <vehicles id="-E2_to_E2_61" type="motorcycle" route="-E2_to_E2" depart="309.0" departLane="random" />
    <vehicle id="E1_to_E2_62" type="truck" route="E1_to_E2" depart="309.0" departLane="random" />
    <vehicle id="E1_to_-E0_63" type="car" route="E1_to_-E0" depart="312.0" departLane="random" />
    <vehicle id="E1_to_E2_64" type="motorcycle" route="E1_to_E2" depart="313.0" departLane="random" />
    <vehicles id="-E2_to_-E0_65" type="truck" route="-E2_to_-E0" depart="314.0" departLane="random" />
    <vehicles id="E0_to_E2_66" type="car" route="E0_to_E2" depart="317.0" departLane="random" />
    <vehicles id="E0_to_E2_67" type="motorcycle" route="E0_to_E2" depart="319.0" departLane="random" />
    <vehicles id="-E2_to_E2_68" type="truck" route="-E2_to_E2" depart="321.0" departLane="random" />
    <vehicles id="E0_to_E2_69" type="car" route="E0_to_E2" depart="321.0" departLane="random" />
    <vehicles id="-E2_to_E2_70" type="motorcycle" route="-E2_to_E2" depart="321.0" departLane="random" />
    <vehicles id="E0_to_E2_71" type="truck" route="E0_to_E2" depart="323.0" departLane="random" />
    <vehicle id="E1_to_-E0_72" type="car" route="E1_to_-E0" depart="325.0" departLane="random" />
    <vehicles id="-E2_to_E2_73" type="motorcycle" route="-E2_to_E2" depart="326.0" departLane="random" />
    <vehicle id="E1_to_-E0_74" type="truck" route="E1_to_-E0" depart="336.0" departLane="random" />
    <vehicles id="-E2_to_E2_75" type="car" route="-E2_to_E2" depart="338.0" departLane="random" />
    <vehicle id="E1_to_-E0_76" type="motorcycle" route="E1_to_-E0" depart="340.0" departLane="random" />
    <vehicles id="-E2_to_E2_77" type="truck" route="-E2_to_E2" depart="345.0" departLane="random" />
    <vehicle id="E1_to_E2_78" type="car" route="E1_to_E2" depart="348.0" departLane="random" />
    <vehicles id="-E2_to_E2_79" type="motorcycle" route="-E2_to_E2" depart="349.0" departLane="random" />
    <vehicle id="E1_to_E2_80" type="truck" route="E1_to_E2" depart="350.0" departLane="random" />
    <vehicle id="E1_to_E2_81" type="car" route="E1_to_E2" depart="354.0" departLane="random" />
    <vehicle id="E1_to_-E0_82" type="motorcycle" route="E1_to_-E0" depart="358.0" departLane="random" />
    <vehicles id="-E2_to_-E0_83" type="truck" route="-E2_to_-E0" depart="362.0" departLane="random" />
    <vehicle id="E1_to_-E0_84" type="car" route="E1_to_-E0" depart="367.0" departLane="random" />
    <vehicles id="-E2_to_-E0_85" type="motorcycle" route="-E2_to_-E0" depart="368.0" departLane="random" />
    <vehicles id="E0_to_E2_86" type="truck" route="E0_to_E2" depart="370.0" departLane="random" />
    <vehicles id="E0_to_E2_87" type="car" route="E0_to_E2" depart="377.0" departLane="random" />
    <vehicles id="-E2_to_E2_88" type="motorcycle" route="-E2_to_E2" depart="381.0" departLane="random" />
    <vehicles id="-E2_to_-E0_89" type="truck" route="-E2_to_-E0" depart="382.0" departLane="random" />
    <vehicles id="E0_to_E2_90" type="car" route="E0_to_E2" depart="383.0" departLane="random" />
    <vehicle id="E1_to_E2_91" type="motorcycle" route="E1_to_E2" depart="384.0" departLane="random" />
    <vehicle id="E1_to_E2_92" type="truck" route="E1_to_E2" depart="384.0" departLane="random" />
    <vehicle id="E1_to_E2_93" type="car" route="E1_to_E2" depart="384.0" departLane="random" />
    <vehicle id="E1_to_-E0_94" type="motorcycle" route="E1_to_-E0" depart="385.0" departLane="random" />
    <vehicle id="E1_to_-E0_95" type="truck" route="E1_to_-E0" depart="385.0" departLane="random" />
    <vehicle id="E1_to_-E0_96" type="car" route="E1_to_-E0" depart="389.0" departLane="random" />
    <vehicles id="-E2_to_E2_97" type="motorcycle" route="-E2_to_E2" depart="389.0" departLane="random" />
    <vehicle id="E1_to_-E0_98" type="truck" route="E1_to_-E0" depart="390.0" departLane="random" />
    <vehicles id="E0_to_E2_99" type="car" route="E0_to_E2" depart="390.0" departLane="random" />
    <vehicles id="-E2_to_E2_100" type="motorcycle" route="-E2_to_E2" depart="390.0" departLane="random" />
    <vehicles id="-E2_to_E2_101" type="truck" route="-E2_to_E2" depart="394.0" departLane="random" />
    <vehicles id="E0_to_E2_102" type="car" route="E0_to_E2" depart="394.0" departLane="random" />
    <vehicles id="-E2_to_E2_103" type="motorcycle" route="-E2_to_E2" depart="396.0" departLane="random" />
    <vehicles id="-E2_to_E2_104" type="truck" route="-E2_to_E2" depart="399.0" departLane="random" />
    <vehicle id="E1_to_-E0_105" type="car" route="E1_to_-E0" depart="401.0" departLane="random" />
    <vehicle id="E1_to_E2_106" type="motorcycle" route="E1_to_E2" depart="404.0" departLane="random" />
    <vehicle id="E1_to_E2_107" type="truck" route="E1_to_E2" depart="404.0" departLane="random" />
    <vehicle id="E1_to_-E0_108" type="car" route="E1_to_-E0" depart="405.0" departLane="random" />
    <vehicle id="E1_to_E2_109" type="motorcycle" route="E1_to_E2" depart="409.0" departLane="random" />
    <vehicle id="E1_to_-E0_110" type="truck" route="E1_to_-E0" depart="410.0" departLane="random" />
    <vehicle id="E1_to_E2_111" type="car" route="E1_to_E2" depart="411.0" departLane="random" />
    <vehicles id="-E2_to_-E0_112" type="motorcycle" route="-E2_to_-E0" depart="413.0" departLane="random" />
    <vehicle id="E1_to_E2_113" type="truck" route="E1_to_E2" depart="414.0" departLane="random" />
    <vehicle id="E1_to_-E0_114" type="car" route="E1_to_-E0" depart="420.0" departLane="random" />
    <vehicle id="E1_to_E2_115" type="motorcycle" route="E1_to_E2" depart="421.0" departLane="random" />
    <vehicle id="E1_to_E2_116" type="truck" route="E1_to_E2" depart="421.0" departLane="random" />
    <vehicles id="-E2_to_-E0_117" type="car" route="-E2_to_-E0" depart="421.0" departLane="random" />
    <vehicle id="E1_to_-E0_118" type="motorcycle" route="E1_to_-E0" depart="421.0" departLane="random" />
    <vehicle id="E1_to_E2_119" type="truck" route="E1_to_E2" depart="424.0" departLane="random" />
    <vehicle id="E1_to_E2_120" type="car" route="E1_to_E2" depart="424.0" departLane="random" />
    <vehicles id="-E2_to_E2_121" type="motorcycle" route="-E2_to_E2" depart="424.0" departLane="random" />
    <vehicle id="E1_to_-E0_122" type="truck" route="E1_to_-E0" depart="424.0" departLane="random" />
    <vehicle id="E1_to_-E0_123" type="car" route="E1_to_-E0" depart="424.0" departLane="random" />
    <vehicle id="E1_to_-E0_124" type="motorcycle" route="E1_to_-E0" depart="426.0" departLane="random" />
    <vehicles id="E0_to_E2_125" type="truck" route="E0_to_E2" depart="427.0" departLane="random" />
    <vehicle id="E1_to_-E0_126" type="car" route="E1_to_-E0" depart="429.0" departLane="random" />
    <vehicle id="E1_to_-E0_127" type="motorcycle" route="E1_to_-E0" depart="429.0" departLane="random" />
    <vehicles id="-E2_to_E2_128" type="truck" route="-E2_to_E2" depart="436.0" departLane="random" />
    <vehicle id="E1_to_E2_129" type="car" route="E1_to_E2" depart="446.0" departLane="random" />
    <vehicles id="E0_to_E2_130" type="motorcycle" route="E0_to_E2" depart="446.0" departLane="random" />
    <vehicles id="-E2_to_-E0_131" type="truck" route="-E2_to_-E0" depart="450.0" departLane="random" />
    <vehicle id="E1_to_E2_132" type="car" route="E1_to_E2" depart="450.0" departLane="random" />
    <vehicle id="E1_to_E2_133" type="motorcycle" route="E1_to_E2" depart="451.0" departLane="random" />
    <vehicle id="E1_to_E2_134" type="truck" route="E1_to_E2" depart="451.0" departLane="random" />
    <vehicle id="E1_to_-E0_135" type="car" route="E1_to_-E0" depart="452.0" departLane="random" />
    <vehicles id="E0_to_E2_136" type="motorcycle" route="E0_to_E2" depart="452.0" departLane="random" />
    <vehicle id="E1_to_-E0_137" type="truck" route="E1_to_-E0" depart="454.0" departLane="random" />
    <vehicles id="E0_to_E2_138" type="car" route="E0_to_E2" depart="454.0" departLane="random" />
    <vehicle id="E1_to_-E0_139" type="motorcycle" route="E1_to_-E0" depart="458.0" departLane="random" />
    <vehicle id="E1_to_E2_140" type="truck" route="E1_to_E2" depart="460.0" departLane="random" />
    <vehicles id="-E2_to_-E0_141" type="car" route="-E2_to_-E0" depart="463.0" departLane="random" />
    <vehicles id="-E2_to_E2_142" type="motorcycle" route="-E2_to_E2" depart="464.0" departLane="random" />
    <vehicles id="-E2_to_E2_143" type="truck" route="-E2_to_E2" depart="467.0" departLane="random" />
    <vehicles id="-E2_to_-E0_144" type="car" route="-E2_to_-E0" depart="467.0" departLane="random" />
    <vehicles id="-E2_to_-E0_145" type="motorcycle" route="-E2_to_-E0" depart="469.0" departLane="random" />
    <vehicles id="-E2_to_-E0_146" type="truck" route="-E2_to_-E0" depart="472.0" departLane="random" />
    <vehicle id="E1_to_E2_147" type="car" route="E1_to_E2" depart="475.0" departLane="random" />
    <vehicles id="-E2_to_-E0_148" type="motorcycle" route="-E2_to_-E0" depart="478.0" departLane="random" />
    <vehicles id="-E2_to_-E0_149" type="truck" route="-E2_to_-E0" depart="480.0" departLane="random" />
    <vehicles id="-E2_to_E2_150" type="car" route="-E2_to_E2" depart="480.0" departLane="random" />
    <vehicle id="E1_to_E2_151" type="motorcycle" route="E1_to_E2" depart="480.0" departLane="random" />
    <vehicles id="E0_to_E2_152" type="truck" route="E0_to_E2" depart="481.0" departLane="random" />
    <vehicles id="E0_to_E2_153" type="car" route="E0_to_E2" depart="483.0" departLane="random" />
    <vehicle id="E1_to_-E0_154" type="motorcycle" route="E1_to_-E0" depart="485.0" departLane="random" />
    <vehicles id="-E2_to_E2_155" type="truck" route="-E2_to_E2" depart="488.0" departLane="random" />
    <vehicle id="E1_to_E2_156" type="car" route="E1_to_E2" depart="490.0" departLane="random" />
    <vehicle id="E1_to_E2_157" type="motorcycle" route="E1_to_E2" depart="495.0" departLane="random" />
    <vehicles id="-E2_to_E2_158" type="truck" route="-E2_to_E2" depart="499.0" departLane="random" />
    <vehicle id="E1_to_E2_159" type="car" route="E1_to_E2" depart="500.0" departLane="random" />
    <vehicles id="-E2_to_-E0_160" type="motorcycle" route="-E2_to_-E0" depart="500.0" departLane="random" />
    <vehicle id="E1_to_E2_161" type="truck" route="E1_to_E2" depart="501.0" departLane="random" />
    <vehicle id="E1_to_-E0_162" type="car" route="E1_to_-E0" depart="501.0" departLane="random" />
    <vehicles id="E0_to_E2_163" type="motorcycle" route="E0_to_E2" depart="502.0" departLane="random" />
    <vehicle id="E1_to_E2_164" type="truck" route="E1_to_E2" depart="502.0" departLane="random" />
    <vehicle id="E1_to_E2_165" type="car" route="E1_to_E2" depart="503.0" departLane="random" />
    <vehicle id="E1_to_E2_166" type="motorcycle" route="E1_to_E2" depart="505.0" departLane="random" />
    <vehicles id="E0_to_E2_167" type="truck" route="E0_to_E2" depart="505.0" departLane="random" />
    <vehicle id="E1_to_-E0_168" type="car" route="E1_to_-E0" depart="505.0" departLane="random" />
    <vehicles id="E0_to_E2_169" type="motorcycle" route="E0_to_E2" depart="506.0" departLane="random" />
    <vehicles id="E0_to_E2_170" type="truck" route="E0_to_E2" depart="509.0" departLane="random" />
    <vehicles id="-E2_to_-E0_171" type="car" route="-E2_to_-E0" depart="511.0" departLane="random" />
    <vehicles id="-E2_to_-E0_172" type="motorcycle" route="-E2_to_-E0" depart="516.0" departLane="random" />
    <vehicles id="-E2_to_E2_173" type="truck" route="-E2_to_E2" depart="521.0" departLane="random" />
    <vehicles id="E0_to_E2_174" type="car" route="E0_to_E2" depart="521.0" departLane="random" />
    <vehicles id="-E2_to_E2_175" type="motorcycle" route="-E2_to_E2" depart="523.0" departLane="random" />
    <vehicles id="-E2_to_-E0_176" type="truck" route="-E2_to_-E0" depart="526.0" departLane="random" />
    <vehicles id="E0_to_E2_177" type="car" route="E0_to_E2" depart="526.0" departLane="random" />
    <vehicles id="-E2_to_-E0_178" type="motorcycle" route="-E2_to_-E0" depart="527.0" departLane="random" />
    <vehicle id="E1_to_E2_179" type="truck" route="E1_to_E2" depart="529.0" departLane="random" />
    <vehicle id="E1_to_E2_180" type="car" route="E1_to_E2" depart="530.0" departLane="random" />
    <vehicle id="E1_to_E2_181" type="motorcycle" route="E1_to_E2" depart="532.0" departLane="random" />
    <vehicle id="E1_to_-E0_182" type="truck" route="E1_to_-E0" depart="534.0" departLane="random" />
    <vehicle id="E1_to_-E0_183" type="car" route="E1_to_-E0" depart="534.0" departLane="random" />
    <vehicles id="-E2_to_-E0_184" type="motorcycle" route="-E2_to_-E0" depart="536.0" departLane="random" />
    <vehicles id="E0_to_E2_185" type="truck" route="E0_to_E2" depart="540.0" departLane="random" />
    <vehicles id="E0_to_E2_186" type="car" route="E0_to_E2" depart="540.0" departLane="random" />
    <vehicle id="E1_to_-E0_187" type="motorcycle" route="E1_to_-E0" depart="540.0" departLane="random" />
    <vehicles id="E0_to_E2_188" type="truck" route="E0_to_E2" depart="543.0" departLane="random" />
    <vehicle id="E1_to_E2_189" type="car" route="E1_to_E2" depart="544.0" departLane="random" />
    <vehicle id="E1_to_-E0_190" type="motorcycle" route="E1_to_-E0" depart="544.0" departLane="random" />
    <vehicles id="E0_to_E2_191" type="truck" route="E0_to_E2" depart="545.0" departLane="random" />
    <vehicles id="-E2_to_-E0_192" type="car" route="-E2_to_-E0" depart="546.0" departLane="random" />
    <vehicles id="E0_to_E2_193" type="motorcycle" route="E0_to_E2" depart="551.0" departLane="random" />
    <vehicle id="E1_to_-E0_194" type="truck" route="E1_to_-E0" depart="552.0" departLane="random" />
    <vehicle id="E1_to_-E0_195" type="car" route="E1_to_-E0" depart="561.0" departLane="random" />
    <vehicles id="-E2_to_E2_196" type="motorcycle" route="-E2_to_E2" depart="562.0" departLane="random" />
    <vehicle id="E1_to_-E0_197" type="truck" route="E1_to_-E0" depart="562.0" departLane="random" />
    <vehicle id="E1_to_-E0_198" type="car" route="E1_to_-E0" depart="566.0" departLane="random" />
    <vehicles id="-E2_to_E2_199" type="motorcycle" route="-E2_to_E2" depart="567.0" departLane="random" />
    <vehicles id="-E2_to_-E0_200" type="truck" route="-E2_to_-E0" depart="575.0" departLane="random" />
    <vehicles id="-E2_to_E2_201" type="car" route="-E2_to_E2" depart="579.0" departLane="random" />
    <vehicles id="-E2_to_-E0_202" type="motorcycle" route="-E2_to_-E0" depart="580.0" departLane="random" />
    <vehicles id="-E2_to_E2_203" type="truck" route="-E2_to_E2" depart="581.0" departLane="random" />
    <vehicle id="E1_to_-E0_204" type="car" route="E1_to_-E0" depart="582.0" departLane="random" />
    <vehicles id="E0_to_E2_205" type="motorcycle" route="E0_to_E2" depart="582.0" departLane="random" />
    <vehicles id="-E2_to_E2_206" type="truck" route="-E2_to_E2" depart="583.0" departLane="random" />
    <vehicle id="E1_to_-E0_207" type="car" route="E1_to_-E0" depart="585.0" departLane="random" />
    <vehicles id="-E2_to_-E0_208" type="motorcycle" route="-E2_to_-E0" depart="586.0" departLane="random" />
    <vehicles id="-E2_to_-E0_209" type="truck" route="-E2_to_-E0" depart="588.0" departLane="random" />
    <vehicles id="-E2_to_-E0_210" type="car" route="-E2_to_-E0" depart="589.0" departLane="random" />
    <vehicles id="-E2_to_E2_211" type="motorcycle" route="-E2_to_E2" depart="591.0" departLane="random" />
    <vehicle id="E1_to_-E0_212" type="truck" route="E1_to_-E0" depart="591.0" departLane="random" />
    <vehicle id="E1_to_E2_213" type="car" route="E1_to_E2" depart="593.0" departLane="random" />
    <vehicle id="E1_to_E2_214" type="motorcycle" route="E1_to_E2" depart="593.0" departLane="random" />
    <vehicles id="E0_to_E2_215" type="truck" route="E0_to_E2" depart="593.0" departLane="random" />
    <vehicles id="-E2_to_-E0_216" type="car" route="-E2_to_-E0" depart="595.0" departLane="random" />
    <vehicles id="-E2_to_-E0_217" type="motorcycle" route="-E2_to_-E0" depart="598.0" departLane="random" />
    <vehicles id="-E2_to_-E0_218" type="truck" route="-E2_to_-E0" depart="600.0" departLane="random" />
    <vehicles id="-E2_to_E2_219" type="car" route="-E2_to_E2" depart="600.0" departLane="random" />
    <vehicle id="E1_to_E2_220" type="motorcycle" route="E1_to_E2" depart="603.0" departLane="random" />
    <vehicle id="E1_to_E2_221" type="truck" route="E1_to_E2" depart="603.0" departLane="random" />
    <vehicles id="E0_to_E2_222" type="car" route="E0_to_E2" depart="604.0" departLane="random" />
    <vehicle id="E1_to_E2_223" type="motorcycle" route="E1_to_E2" depart="605.0" departLane="random" />
    <vehicle id="E1_to_-E0_224" type="truck" route="E1_to_-E0" depart="609.0" departLane="random" />
    <vehicle id="E1_to_E2_225" type="car" route="E1_to_E2" depart="610.0" departLane="random" />
    <vehicle id="E1_to_-E0_226" type="motorcycle" route="E1_to_-E0" depart="610.0" departLane="random" />
    <vehicle id="E1_to_E2_227" type="truck" route="E1_to_E2" depart="611.0" departLane="random" />
    <vehicle id="E1_to_E2_228" type="car" route="E1_to_E2" depart="613.0" departLane="random" />
    <vehicle id="E1_to_-E0_229" type="motorcycle" route="E1_to_-E0" depart="616.0" departLane="random" />
    <vehicle id="E1_to_E2_230" type="truck" route="E1_to_E2" depart="617.0" departLane="random" />
    <vehicles id="-E2_to_-E0_231" type="car" route="-E2_to_-E0" depart="617.0" departLane="random" />
    <vehicle id="E1_to_E2_232" type="motorcycle" route="E1_to_E2" depart="618.0" departLane="random" />
    <vehicle id="E1_to_-E0_233" type="truck" route="E1_to_-E0" depart="619.0" departLane="random" />
    <vehicles id="-E2_to_E2_234" type="car" route="-E2_to_E2" depart="625.0" departLane="random" />
    <vehicles id="-E2_to_E2_235" type="motorcycle" route="-E2_to_E2" depart="625.0" departLane="random" />
    <vehicles id="-E2_to_-E0_236" type="truck" route="-E2_to_-E0" depart="625.0" departLane="random" />
    <vehicle id="E1_to_E2_237" type="car" route="E1_to_E2" depart="626.0" departLane="random" />
    <vehicles id="-E2_to_-E0_238" type="motorcycle" route="-E2_to_-E0" depart="629.0" departLane="random" />
    <vehicles id="-E2_to_E2_239" type="truck" route="-E2_to_E2" depart="630.0" departLane="random" />
    <vehicle id="E1_to_-E0_240" type="car" route="E1_to_-E0" depart="631.0" departLane="random" />
    <vehicle id="E1_to_E2_241" type="motorcycle" route="E1_to_E2" depart="631.0" departLane="random" />
    <vehicle id="E1_to_-E0_242" type="truck" route="E1_to_-E0" depart="632.0" departLane="random" />
    <vehicle id="E1_to_-E0_243" type="car" route="E1_to_-E0" depart="632.0" departLane="random" />
    <vehicles id="E0_to_E2_244" type="motorcycle" route="E0_to_E2" depart="635.0" departLane="random" />
    <vehicle id="E1_to_E2_245" type="truck" route="E1_to_E2" depart="636.0" departLane="random" />
    <vehicles id="-E2_to_E2_246" type="car" route="-E2_to_E2" depart="637.0" departLane="random" />
    <vehicles id="-E2_to_-E0_247" type="motorcycle" route="-E2_to_-E0" depart="638.0" departLane="random" />
    <vehicle id="E1_to_E2_248" type="truck" route="E1_to_E2" depart="638.0" departLane="random" />
    <vehicle id="E1_to_-E0_249" type="car" route="E1_to_-E0" depart="640.0" departLane="random" />
    <vehicles id="-E2_to_E2_250" type="motorcycle" route="-E2_to_E2" depart="640.0" departLane="random" />
    <vehicle id="E1_to_E2_251" type="truck" route="E1_to_E2" depart="641.0" departLane="random" />
    <vehicles id="E0_to_E2_252" type="car" route="E0_to_E2" depart="642.0" departLane="random" />
    <vehicle id="E1_to_E2_253" type="motorcycle" route="E1_to_E2" depart="643.0" departLane="random" />
    <vehicles id="-E2_to_E2_254" type="truck" route="-E2_to_E2" depart="644.0" departLane="random" />
    <vehicles id="-E2_to_-E0_255" type="car" route="-E2_to_-E0" depart="647.0" departLane="random" />
    <vehicle id="E1_to_-E0_256" type="motorcycle" route="E1_to_-E0" depart="648.0" departLane="random" />
    <vehicles id="-E2_to_E2_257" type="truck" route="-E2_to_E2" depart="649.0" departLane="random" />
    <vehicles id="E0_to_E2_258" type="car" route="E0_to_E2" depart="649.0" departLane="random" />
    <vehicles id="-E2_to_-E0_259" type="motorcycle" route="-E2_to_-E0" depart="649.0" departLane="random" />
    <vehicles id="E0_to_E2_260" type="truck" route="E0_to_E2" depart="650.0" departLane="random" />
    <vehicles id="-E2_to_E2_261" type="car" route="-E2_to_E2" depart="654.0" departLane="random" />
    <vehicles id="-E2_to_E2_262" type="motorcycle" route="-E2_to_E2" depart="657.0" departLane="random" />
    <vehicles id="E0_to_E2_263" type="truck" route="E0_to_E2" depart="658.0" departLane="random" />
    <vehicles id="-E2_to_-E0_264" type="car" route="-E2_to_-E0" depart="660.0" departLane="random" />
    <vehicles id="-E2_to_E2_265" type="motorcycle" route="-E2_to_E2" depart="662.0" departLane="random" />
    <vehicles id="E0_to_E2_266" type="truck" route="E0_to_E2" depart="663.0" departLane="random" />
    <vehicle id="E1_to_E2_267" type="car" route="E1_to_E2" depart="665.0" departLane="random" />
    <vehicles id="-E2_to_-E0_268" type="motorcycle" route="-E2_to_-E0" depart="666.0" departLane="random" />
    <vehicle id="E1_to_E2_269" type="truck" route="E1_to_E2" depart="666.0" departLane="random" />
    <vehicle id="E1_to_E2_270" type="car" route="E1_to_E2" depart="669.0" departLane="random" />
    <vehicle id="E1_to_E2_271" type="motorcycle" route="E1_to_E2" depart="673.0" departLane="random" />
    <vehicles id="E0_to_E2_272" type="truck" route="E0_to_E2" depart="674.0" departLane="random" />
    <vehicles id="-E2_to_E2_273" type="car" route="-E2_to_E2" depart="675.0" departLane="random" />
    <vehicles id="-E2_to_-E0_274" type="motorcycle" route="-E2_to_-E0" depart="676.0" departLane="random" />
    <vehicles id="-E2_to_E2_275" type="truck" route="-E2_to_E2" depart="677.0" departLane="random" />
    <vehicle id="E1_to_-E0_276" type="car" route="E1_to_-E0" depart="677.0" departLane="random" />
    <vehicle id="E1_to_-E0_277" type="motorcycle" route="E1_to_-E0" depart="678.0" departLane="random" />
    <vehicles id="-E2_to_E2_278" type="truck" route="-E2_to_E2" depart="680.0" departLane="random" />
    <vehicle id="E1_to_-E0_279" type="car" route="E1_to_-E0" depart="684.0" departLane="random" />
    <vehicles id="-E2_to_-E0_280" type="motorcycle" route="-E2_to_-E0" depart="684.0" departLane="random" />
    <vehicle id="E1_to_E2_281" type="truck" route="E1_to_E2" depart="684.0" departLane="random" />
    <vehicle id="E1_to_-E0_282" type="car" route="E1_to_-E0" depart="686.0" departLane="random" />
    <vehicle id="E1_to_-E0_283" type="motorcycle" route="E1_to_-E0" depart="690.0" departLane="random" />
    <vehicles id="-E2_to_E2_284" type="truck" route="-E2_to_E2" depart="692.0" departLane="random" />
    <vehicle id="E1_to_-E0_285" type="car" route="E1_to_-E0" depart="692.0" departLane="random" />
    <vehicle id="E1_to_-E0_286" type="motorcycle" route="E1_to_-E0" depart="692.0" departLane="random" />
    <vehicle id="E1_to_E2_287" type="truck" route="E1_to_E2" depart="693.0" departLane="random" />
    <vehicle id="E1_to_-E0_288" type="car" route="E1_to_-E0" depart="694.0" departLane="random" />
    <vehicles id="-E2_to_-E0_289" type="motorcycle" route="-E2_to_-E0" depart="698.0" departLane="random" />